@<TRIPOS>MOLECULE
M0001
  204   224     0     0     0
SMALL
USER_CHARGES

@<TRIPOS>ATOM
      1 H1          3.9454   -0.2540    2.4646 H         1 <0>         0.1550
      2 C1          3.4557    0.6844    2.2127 C.ar      1 <0>        -0.1492
      3 C2          2.1884    3.1083    1.5645 C.ar      1 <0>        -0.1032
      4 C3          2.5448    1.2823    3.0848 C.ar      1 <0>         0.0884
      5 C4          3.7175    1.3371    1.0068 C.ar      1 <0>         0.0884
      6 C5          3.1122    2.5601    0.6653 C.ar      1 <0>        -0.0813
      7 C6          1.9082    2.5059    2.7960 C.ar      1 <0>        -0.0813
      8 H2          1.6551    4.0278    1.2891 H         1 <0>         0.1636
      9 C7          0.9348    3.0921    3.7957 C.3       1 <0>         0.0190
     10 H3          1.2403    2.7140    4.8201 H         1 <0>         0.1015
     11 C8          3.4702    3.2377   -0.6431 C.3       1 <0>         0.0190
     12 H4          4.5115    2.8891   -0.9298 H         1 <0>         0.1015
     13 C9         -0.4360    2.5240    3.4845 C.ar      1 <0>        -0.0813
     14 C10        -2.8800    1.3249    2.8374 C.ar      1 <0>         0.0884
     15 C11        -0.8147    1.2852    4.0353 C.ar      1 <0>         0.0884
     16 C12        -1.3319    3.1485    2.6049 C.ar      1 <0>        -0.1032
     17 C13        -2.5569    2.5661    2.2549 C.ar      1 <0>        -0.0813
     18 C14        -2.0363    0.6770    3.7406 C.ar      1 <0>        -0.1492
     19 H5         -1.0490    4.1096    2.1574 H         1 <0>         0.1636
     20 H6         -2.3178   -0.2713    4.1944 H         1 <0>         0.1561
     21 C15         2.5201    2.7399   -1.7084 C.ar      1 <0>        -0.0813
     22 C16         0.7699    1.5892   -3.5584 C.ar      1 <0>         0.0884
     23 C17         1.2997    3.3592   -2.0141 C.ar      1 <0>        -0.1032
     24 C18         2.8378    1.5398   -2.3753 C.ar      1 <0>         0.0884
     25 C19         1.9896    0.9572   -3.3169 C.ar      1 <0>        -0.1492
     26 C20         0.3963    2.7909   -2.9231 C.ar      1 <0>        -0.0813
     27 H7          1.0346    4.2908   -1.5052 H         1 <0>         0.1636
     28 H8          2.2651    0.0422   -3.8373 H         1 <0>         0.1561
     29 C21        -0.9756    3.3611   -3.2158 C.3       1 <0>         0.0190
     30 H9         -1.2564    3.0083   -4.2598 H         1 <0>         0.1015
     31 C22        -3.5102    3.1906    1.2555 C.3       1 <0>         0.0190
     32 H10        -4.5529    2.8206    1.5100 H         1 <0>         0.1015
     33 C23        -3.1760    2.6619   -0.1238 C.ar      1 <0>        -0.0813
     34 C24        -2.5905    1.5281   -2.6145 C.ar      1 <0>         0.0884
     35 C25        -3.7673    1.4531   -0.5426 C.ar      1 <0>         0.0884
     36 C26        -2.2810    3.2869   -1.0028 C.ar      1 <0>        -0.1032
     37 C27        -1.9688    2.7394   -2.2550 C.ar      1 <0>        -0.0813
     38 C28        -3.5010    0.8746   -1.7837 C.ar      1 <0>        -0.1492
     39 H11        -1.8056    4.2331   -0.7038 H         1 <0>         0.1636
     40 H12        -3.9853   -0.0494   -2.0921 H         1 <0>         0.1561
     41 C29         3.5197    4.7613   -0.4587 C.3       1 <0>        -0.0768
     42 H13         2.5012    5.1829   -0.2992 H         1 <0>         0.0693
     43 C30         0.9147    4.6325    3.8626 C.3       1 <0>        -0.0768
     44 H14         0.3355    5.0489    3.0047 H         1 <0>         0.0693
     45 O1         -2.3002    0.8959   -3.8320 O.3       1 <0>        -0.3321
     46 O2         -0.0944    0.9410   -4.4528 O.3       1 <0>        -0.3321
     47 O3         -4.6468    0.7464    0.2907 O.3       1 <0>        -0.3321
     48 O4          2.2535    0.5722    4.2585 O.3       1 <0>        -0.3321
     49 O5          0.0463    0.5706    4.8809 O.3       1 <0>        -0.3321
     50 O6         -4.0634    0.6517    2.5048 O.3       1 <0>        -0.3321
     51 C31         1.0284   -0.1828    4.1378 C.3       1 <0>         0.3736
     52 H15         0.7269   -0.2880    3.0694 H         1 <0>         0.0660
     53 C32        -3.9481   -0.0658    1.2571 C.3       1 <0>         0.3736
     54 H16        -2.8799   -0.2014    0.9698 H         1 <0>         0.0660
     55 O7          4.5932    0.6895    0.1256 O.3       1 <0>        -0.3321
     56 C33         3.8903   -0.0029   -0.9290 C.3       1 <0>         0.3736
     57 H17         2.8185   -0.1548   -0.6639 H         1 <0>         0.0660
     58 O8          4.0221    0.8428   -2.0913 O.3       1 <0>        -0.3321
     59 C34        -1.0772    0.1319   -3.7720 C.3       1 <0>         0.3736
     60 H18        -0.7760   -0.0614   -2.7168 H         1 <0>         0.0660
     61 C35         4.5665   -1.3318   -1.1797 C.ar      1 <0>        -0.0332
     62 C36         5.4706   -3.9732   -1.5481 C.ar      1 <0>        -0.1630
     63 C37         4.4880   -1.9060   -2.4509 C.ar      1 <0>        -0.1867
     64 C38         5.0902   -2.0315   -0.0887 C.ar      1 <0>        -0.1867
     65 C39         5.5335   -3.3451   -0.2968 C.ar      1 <0>         0.1384
     66 C40         4.9454   -3.2226   -2.6082 C.ar      1 <0>         0.1384
     67 H19         4.1159   -1.3268   -3.2941 H         1 <0>         0.1591
     68 H20         5.1785   -1.5465    0.8823 H         1 <0>         0.1591
     69 C41        -1.2659   -1.1702   -4.5167 C.ar      1 <0>        -0.0332
     70 C42        -1.5246   -3.7739   -5.5581 C.ar      1 <0>        -0.1630
     71 C43        -0.1557   -1.7806   -5.1060 C.ar      1 <0>        -0.1867
     72 C44        -2.5033   -1.8153   -4.4385 C.ar      1 <0>        -0.1867
     73 C45        -2.6070   -3.1111   -4.9640 C.ar      1 <0>         0.1384
     74 C46        -0.3103   -3.0772   -5.6176 C.ar      1 <0>         0.1384
     75 H21         0.7862   -1.2416   -5.1930 H         1 <0>         0.1591
     76 H22        -3.3638   -1.3017   -4.0124 H         1 <0>         0.1591
     77 C47        -4.6354   -1.4065    1.3837 C.ar      1 <0>        -0.0332
     78 C48        -5.5571   -4.0639    1.5207 C.ar      1 <0>        -0.1630
     79 C49        -5.1722   -2.0007    0.2382 C.ar      1 <0>        -0.1867
     80 C50        -4.5524   -2.0941    2.5975 C.ar      1 <0>        -0.1867
     81 C51        -5.0182   -3.4161    2.6402 C.ar      1 <0>         0.1384
     82 C52        -5.6243   -3.3247    0.3319 C.ar      1 <0>         0.1384
     83 H23        -5.2645   -1.4300   -0.6844 H         1 <0>         0.1591
     84 H24        -4.1696   -1.5951    3.4863 H         1 <0>         0.1591
     85 C53         1.2099   -1.5461    4.7653 C.ar      1 <0>        -0.0332
     86 C54         1.4456   -4.2392    5.5537 C.ar      1 <0>        -0.1630
     87 C55         2.4422   -2.1911    4.6264 C.ar      1 <0>        -0.1867
     88 C56         0.0942   -2.2005    5.2940 C.ar      1 <0>        -0.1867
     89 C57         0.2371   -3.5414    5.6791 C.ar      1 <0>         0.1384
     90 C58         2.5342   -3.5321    5.0254 C.ar      1 <0>         0.1384
     91 H25         3.3073   -1.6469    4.2509 H         1 <0>         0.1591
     92 H26        -0.8436   -1.6646    5.4313 H         1 <0>         0.1591
     93 O9          6.0516   -4.1561    0.7017 O.3       1 <0>        -0.2426
     94 O10         0.7117   -3.8007   -6.2146 O.3       1 <0>        -0.2426
     95 O11        -3.7683   -3.8688   -4.9341 O.3       1 <0>        -0.2426
     96 O12         3.6880   -4.2950    4.9225 O.3       1 <0>        -0.2426
     97 O13        -6.1602   -4.0388   -0.7294 O.3       1 <0>        -0.2426
     98 O14        -4.9799   -4.2148    3.7736 O.3       1 <0>        -0.2426
     99 O15        -0.7920   -4.3109    6.2019 O.3       1 <0>        -0.2426
    100 O16         4.9140   -3.9147   -3.8101 O.3       1 <0>        -0.2426
    101 C59        -4.8170   -3.4325   -4.1018 C.ar      1 <0>         0.0629
    102 C60        -7.0642   -2.8000   -2.5758 C.ar      1 <0>        -0.0633
    103 C61        -4.8383   -3.8504   -2.7554 C.ar      1 <0>        -0.0413
    104 C62        -5.8598   -2.7165   -4.6941 C.ar      1 <0>        -0.0633
    105 C63        -6.9855   -2.4050   -3.9175 C.ar      1 <0>        -0.1256
    106 C64        -5.9968   -3.5151   -2.0261 C.ar      1 <0>         0.0629
    107 H27        -5.8008   -2.4161   -5.7471 H         1 <0>         0.1813
    108 H28        -7.9475   -2.5646   -1.9700 H         1 <0>         0.1813
    109 C65        -4.1762   -3.7925    4.8497 C.ar      1 <0>         0.0629
    110 C66        -2.7011   -3.2046    7.1428 C.ar      1 <0>        -0.0633
    111 C67        -2.8124   -4.1494    4.8656 C.ar      1 <0>        -0.0413
    112 C68        -4.8101   -3.1570    5.9200 C.ar      1 <0>        -0.0633
    113 C69        -4.0589   -2.8676    7.0685 C.ar      1 <0>        -0.1256
    114 C70        -2.1096   -3.8396    6.0475 C.ar      1 <0>         0.0629
    115 H29        -5.8752   -2.9023    5.8641 H         1 <0>         0.1813
    116 H30        -2.1147   -2.9867    8.0434 H         1 <0>         0.1813
    117 C71         4.7349   -3.8019    4.1205 C.ar      1 <0>         0.0629
    118 C72         6.9790   -3.0723    2.6334 C.ar      1 <0>        -0.0633
    119 C73         5.7873   -3.1424    4.7594 C.ar      1 <0>        -0.0633
    120 C74         4.7448   -4.1146    2.7455 C.ar      1 <0>        -0.0413
    121 C75         5.9021   -3.7339    2.0369 C.ar      1 <0>         0.0629
    122 C76         6.9113   -2.7813    4.0020 C.ar      1 <0>        -0.1256
    123 H31         5.7372   -2.9239    5.8329 H         1 <0>         0.1813
    124 H32         7.8607   -2.7980    2.0420 H         1 <0>         0.1813
    125 C77         4.1048   -3.4040   -4.8425 C.ar      1 <0>         0.0629
    126 C78         2.6191   -2.6259   -7.0710 C.ar      1 <0>        -0.0633
    127 C79         2.7402   -3.7566   -4.8807 C.ar      1 <0>        -0.0413
    128 C80         4.7344   -2.6830   -5.8597 C.ar      1 <0>        -0.0633
    129 C81         3.9779   -2.2985   -6.9765 C.ar      1 <0>        -0.1256
    130 C82         2.0319   -3.3484   -6.0288 C.ar      1 <0>         0.0629
    131 H33         5.8002   -2.4352   -5.7882 H         1 <0>         0.1813
    132 H34         2.0283   -2.3332   -7.9472 H         1 <0>         0.1813
    133 H35         0.3395    4.9287    4.7648 H         1 <0>         0.0693
    134 C83        -3.5291    4.7253    1.3706 C.3       1 <0>        -0.0768
    135 C84        -1.0061    4.8977   -3.2299 C.3       1 <0>        -0.0768
    136 H36         4.0721    4.9827    0.4854 H         1 <0>         0.0693
    137 H37        -0.9977    5.3124   -2.1960 H         1 <0>         0.0693
    138 H38        -0.0934    5.2887   -3.7282 H         1 <0>         0.0693
    139 H39        -2.5105    5.1422    1.2003 H         1 <0>         0.0693
    140 H40        -3.7830    4.9948    2.4174 H         1 <0>         0.0693
    141 C85         8.0252   -2.0862    4.6947 C.2       1 <0>         0.6507
    142 C86        -4.7461   -2.1981    8.2012 C.2       1 <0>         0.6507
    143 C87        -8.0890   -1.6487   -4.5608 C.2       1 <0>         0.6507
    144 C88         4.6605   -1.5382   -8.0533 C.2       1 <0>         0.6507
    145 O17         8.1220   -1.7810    5.8598 O.2       1 <0>        -0.5400
    146 O18        -5.9021   -1.8595    8.2952 O.2       1 <0>        -0.5400
    147 O19        -8.1741   -1.2500   -5.6983 O.2       1 <0>        -0.5400
    148 O20         5.8144   -1.1861   -8.1201 O.2       1 <0>        -0.5400
    149 C89        -4.5261    5.3919    0.4190 C.3       1 <0>        -0.1272
    150 H41        -5.2324    4.6520   -0.0234 H         1 <0>         0.0887
    151 H42        -5.1874    6.0983    0.9699 H         1 <0>         0.0887
    152 C90         4.2040    5.4868   -1.6163 C.3       1 <0>        -0.1272
    153 H43         5.1572    4.9842   -1.9036 H         1 <0>         0.0887
    154 H44         3.5823    5.4542   -2.5394 H         1 <0>         0.0887
    155 C91        -2.2501    5.4055   -3.9711 C.3       1 <0>        -0.1272
    156 H45        -3.1738    5.0297   -3.4738 H         1 <0>         0.0887
    157 H46        -2.2752    5.0021   -5.0100 H         1 <0>         0.0887
    158 C92         2.2983    5.2901    3.9036 C.3       1 <0>        -0.1272
    159 H47         3.1041    4.5473    4.1053 H         1 <0>         0.0887
    160 H48         2.3711    6.0047    4.7537 H         1 <0>         0.0887
    161 C93         4.5001    6.9033   -1.2260 C.2       1 <0>         0.6470
    162 C94        -2.2939    6.9016   -4.0258 C.2       1 <0>         0.6470
    163 C95         2.5957    6.0210    2.6238 C.2       1 <0>         0.6470
    164 C96        -3.8309    6.1342   -0.6863 C.2       1 <0>         0.6470
    165 O21        -3.1768    7.6572   -3.6634 O.2       1 <0>        -0.5827
    166 O22        -2.6374    6.2462   -0.8925 O.2       1 <0>        -0.5827
    167 O23         4.6195    7.4078   -0.1281 O.2       1 <0>        -0.5827
    168 O24         1.8654    6.2006    1.6681 O.2       1 <0>        -0.5827
    169 H49        -5.9156   -5.0903    1.5742 H         1 <0>         0.1739
    170 H50        -1.6249   -4.7794   -5.9629 H         1 <0>         0.1739
    171 H51         5.8221   -4.9934   -1.6918 H         1 <0>         0.1739
    172 H52         1.5372   -5.2797    5.8603 H         1 <0>         0.1739
    173 O25        -9.1117   -1.4102   -3.6714 O.3       1 <0>        -0.6041
    174 H53        -9.8627   -0.9015   -4.0871 H         1 <0>         0.4525
    175 O26        -3.8763   -1.9663    9.2424 O.3       1 <0>        -0.6041
    176 H54        -4.3219   -1.5160   10.0133 H         1 <0>         0.4525
    177 O27         9.0423   -1.7833    3.8187 O.3       1 <0>        -0.6041
    178 H55         9.7998   -1.3134    4.2675 H         1 <0>         0.4525
    179 O28         3.7893   -1.2317   -9.0736 O.3       1 <0>        -0.6041
    180 H56         4.2320   -0.7194   -9.8068 H         1 <0>         0.4525
    181 O29        -4.7354    6.7092   -1.5213 O.3       1 <0>        -0.6056
    182 H57        -4.3013    7.2332   -2.2915 H         1 <0>         0.4620
    183 O30        -1.1748    7.4238   -4.6146 O.3       1 <0>        -0.6056
    184 H58        -1.1921    8.4216   -4.6573 H         1 <0>         0.4620
    185 O31         4.6653    7.6801   -2.3429 O.3       1 <0>        -0.6056
    186 H59         4.8778    8.6309   -2.1286 H         1 <0>         0.4620
    187 O32         3.8771    6.4798    2.5999 O.3       1 <0>        -0.6056
    188 H60         4.1102    6.9704    1.7338 H         1 <0>         0.4620
    189 C97        -2.1619   -4.8252    3.7161 C.3       1 <0>        -0.0670
    190 H61        -1.3408   -5.4849    4.0436 H         1 <0>         0.0630
    191 H62        -1.7354   -4.0961    3.0112 H         1 <0>         0.0630
    192 H63        -2.8771   -5.4476    3.1523 H         1 <0>         0.0630
    193 C98         3.6141   -4.8160    2.0892 C.3       1 <0>        -0.0670
    194 H64         3.9550   -5.4297    1.2384 H         1 <0>         0.0630
    195 H65         2.8707   -4.1032    1.7020 H         1 <0>         0.0630
    196 H66         3.0908   -5.4883    2.7898 H         1 <0>         0.0630
    197 C99         2.0944   -4.5250   -3.7881 C.3       1 <0>        -0.0670
    198 H67         2.8108   -5.1943   -3.2828 H         1 <0>         0.0630
    199 H68         1.2695   -5.1529   -4.1649 H         1 <0>         0.0630
    200 H69         1.6738   -3.8566   -3.0220 H         1 <0>         0.0630
    201 C100       -3.7178   -4.6106   -2.1490 C.3       1 <0>        -0.0670
    202 H70        -2.9705   -3.9366   -1.7042 H         1 <0>         0.0630
    203 H71        -3.1961   -5.2317   -2.8965 H         1 <0>         0.0630
    204 H72        -4.0691   -5.2850   -1.3500 H         1 <0>         0.0630
@<TRIPOS>BOND
     1    1    2 1
     2    2    5 ar
     3    5    6 ar
     4    3    6 ar
     5    3    7 ar
     6    4    7 ar
     7    2    4 ar
     8    3    8 1
     9    9   10 1
    10    7    9 1
    11   11   12 1
    12    6   11 1
    13   13   16 ar
    14   16   17 ar
    15   14   17 ar
    16   14   18 ar
    17   15   18 ar
    18   13   15 ar
    19   18   20 1
    20   16   19 1
    21    9   13 1
    22   21   24 ar
    23   24   25 ar
    24   22   25 ar
    25   22   26 ar
    26   23   26 ar
    27   21   23 ar
    28   25   28 1
    29   23   27 1
    30   11   21 1
    31   29   30 1
    32   26   29 1
    33   31   32 1
    34   17   31 1
    35   33   36 ar
    36   36   37 ar
    37   34   37 ar
    38   34   38 ar
    39   35   38 ar
    40   33   35 ar
    41   38   40 1
    42   36   39 1
    43   31   33 1
    44   29   37 1
    45   41  136 1
    46   41   42 1
    47   11   41 1
    48   43  133 1
    49   43   44 1
    50    9   43 1
    51   31  134 1
    52   29  135 1
    53   34   45 1
    54   22   46 1
    55   35   47 1
    56    4   48 1
    57   15   49 1
    58   14   50 1
    59   51   52 1
    60   48   51 1
    61   53   54 1
    62   50   53 1
    63   47   53 1
    64   49   51 1
    65    5   55 1
    66   56   57 1
    67   55   56 1
    68   24   58 1
    69   56   58 1
    70   59   60 1
    71   46   59 1
    72   45   59 1
    73   61   64 ar
    74   64   65 ar
    75   62   65 ar
    76   62   66 ar
    77   63   66 ar
    78   61   63 ar
    79   63   67 1
    80   64   68 1
    81   56   61 1
    82   69   72 ar
    83   72   73 ar
    84   70   73 ar
    85   70   74 ar
    86   71   74 ar
    87   69   71 ar
    88   71   75 1
    89   72   76 1
    90   59   69 1
    91   77   80 ar
    92   80   81 ar
    93   78   81 ar
    94   78   82 ar
    95   79   82 ar
    96   77   79 ar
    97   79   83 1
    98   80   84 1
    99   53   77 1
   100   85   88 ar
   101   88   89 ar
   102   86   89 ar
   103   86   90 ar
   104   87   90 ar
   105   85   87 ar
   106   87   91 1
   107   88   92 1
   108   51   85 1
   109   65   93 1
   110   74   94 1
   111   73   95 1
   112   90   96 1
   113   82   97 1
   114   81   98 1
   115   89   99 1
   116   66  100 1
   117  101  104 ar
   118  104  105 ar
   119  102  105 ar
   120  102  106 ar
   121  103  106 ar
   122  101  103 ar
   123  102  108 1
   124  104  107 1
   125   95  101 1
   126  109  112 ar
   127  112  113 ar
   128  110  113 ar
   129  110  114 ar
   130  111  114 ar
   131  109  111 ar
   132  110  116 1
   133  112  115 1
   134   98  109 1
   135  117  120 ar
   136  120  121 ar
   137  118  121 ar
   138  118  122 ar
   139  119  122 ar
   140  117  119 ar
   141  118  124 1
   142  119  123 1
   143  125  128 ar
   144  128  129 ar
   145  126  129 ar
   146  126  130 ar
   147  127  130 ar
   148  125  127 ar
   149  126  132 1
   150  128  131 1
   151  100  125 1
   152   97  106 1
   153   93  121 1
   154   96  117 1
   155   99  114 1
   156   94  130 1
   157  135  137 1
   158  135  138 1
   159  134  139 1
   160  134  140 1
   161  122  141 1
   162  113  142 1
   163  105  143 1
   164  129  144 1
   165  141  145 2
   166  142  146 2
   167  143  147 2
   168  144  148 2
   169  149  150 1
   170  149  151 1
   171  134  149 1
   172  152  153 1
   173  152  154 1
   174   41  152 1
   175  155  156 1
   176  155  157 1
   177  135  155 1
   178  158  159 1
   179  158  160 1
   180   43  158 1
   181  152  161 1
   182  155  162 1
   183  158  163 1
   184  149  164 1
   185  162  165 2
   186  164  166 2
   187  161  167 2
   188  163  168 2
   189   78  169 1
   190   70  170 1
   191   62  171 1
   192   86  172 1
   193  173  174 1
   194  143  173 1
   195  175  176 1
   196  142  175 1
   197  177  178 1
   198  141  177 1
   199  179  180 1
   200  144  179 1
   201  181  182 1
   202  164  181 1
   203  183  184 1
   204  162  183 1
   205  185  186 1
   206  161  185 1
   207  187  188 1
   208  163  187 1
   209  189  190 1
   210  189  191 1
   211  189  192 1
   212  111  189 1
   213  193  194 1
   214  193  195 1
   215  193  196 1
   216  120  193 1
   217  197  198 1
   218  197  199 1
   219  197  200 1
   220  127  197 1
   221  201  202 1
   222  201  203 1
   223  201  204 1
   224  103  201 1
