@<TRIPOS>MOLECULE
*****
   26    26     0     0     0
SMALL
USER_CHARGES

@<TRIPOS>ATOM
      1 C1         -1.8386    3.0113    4.8829 C.ar      1 UNL1       -0.1500
      2 C2         -2.1667    2.8897    3.5327 C.ar      1 UNL1       -0.1500
      3 C3         -0.5624    2.6621    5.3247 C.ar      1 UNL1       -0.1500
      4 C4         -1.2187    2.4190    2.6242 C.ar      1 UNL1       -0.1500
      5 C5          0.3856    2.1913    4.4163 C.ar      1 UNL1       -0.1500
      6 C6          0.0575    2.0697    3.0660 C.ar      1 UNL1       -0.1435
      7 C7          1.3664   -0.7131    3.2087 C.3       1 UNL1        0.0000
      8 C8          1.5860   -0.0705   -0.4325 C.3       1 UNL1        0.2700
      9 C9          1.0841    1.5598    2.0832 C.3       1 UNL1        0.1435
     10 C10         1.0633    0.0304    1.9078 C.3       1 UNL1        0.2700
     11 N1          2.0628   -0.3607    0.9094 N.3       1 UNL1       -0.9000
     12 H1         -2.5765    3.3791    5.5899 H         1 UNL1        0.1500
     13 H2         -3.1600    3.1626    3.1883 H         1 UNL1        0.1500
     14 H3         -0.3063    2.7577    6.3757 H         1 UNL1        0.1500
     15 H4         -1.4833    2.3273    1.5741 H         1 UNL1        0.1500
     16 H5          1.3773    1.9215    4.7696 H         1 UNL1        0.1500
     17 H6          2.3429   -0.4174    3.6094 H         1 UNL1        0.0000
     18 H7          1.3783   -1.7987    3.0595 H         1 UNL1        0.0000
     19 H8          0.6206   -0.4854    3.9772 H         1 UNL1        0.0000
     20 H9          1.3928    1.0082   -0.5283 H         1 UNL1        0.0000
     21 H10         2.3483   -0.3728   -1.1657 H         1 UNL1        0.0000
     22 H11         0.6561   -0.6274   -0.6196 H         1 UNL1        0.0000
     23 H12         0.9455    2.0535    1.1119 H         1 UNL1        0.0000
     24 H13         2.0719    1.8839    2.4394 H         1 UNL1        0.0000
     25 H14         0.0817   -0.2941    1.5433 H         1 UNL1        0.0000
     26 H15         2.2420   -1.3573    1.0002 H         1 UNL1        0.3600
@<TRIPOS>BOND
     1    1    2 ar
     2    1    3 ar
     3    2    4 ar
     4    3    5 ar
     5    4    6 ar
     6    5    6 ar
     7    6    9 1
     8    7   10 1
     9    8   11 1
    10    9   10 1
    11   10   11 1
    12    1   12 1
    13    2   13 1
    14    3   14 1
    15    4   15 1
    16    5   16 1
    17    7   17 1
    18    7   18 1
    19    7   19 1
    20    8   20 1
    21    8   21 1
    22    8   22 1
    23    9   23 1
    24    9   24 1
    25   10   25 1
    26   11   26 1
