@<TRIPOS>MOLECULE
*****
   53    55     0     0     0
SMALL
USER_CHARGES

@<TRIPOS>ATOM
      1 C1          2.1640   -4.7739    7.4877 C.ar      1 UNL1       -0.1500
      2 C2         -1.8668   -0.8222   -5.4015 C.ar      1 UNL1       -0.1500
      3 C3          1.0729   -3.9911    7.1103 C.ar      1 UNL1       -0.1500
      4 C4          3.3041   -4.8145    6.6851 C.ar      1 UNL1       -0.1500
      5 C5         -0.8076   -1.7288   -5.4424 C.ar      1 UNL1       -0.1500
      6 C6         -1.9456    0.1124   -4.3690 C.ar      1 UNL1       -0.1500
      7 C7          1.1220   -3.2489    5.9303 C.ar      1 UNL1       -0.1500
      8 C8          3.3532   -4.0723    5.5051 C.ar      1 UNL1       -0.1500
      9 C9          0.1729   -1.7009   -4.4506 C.ar      1 UNL1       -0.1500
     10 C10        -0.9652    0.1402   -3.3772 C.ar      1 UNL1       -0.1500
     11 C11         2.2621   -3.2895    5.1276 C.ar      1 UNL1       -0.1435
     12 C12         0.0941   -0.7665   -3.4179 C.ar      1 UNL1        0.1170
     13 C13         2.2672    0.0874   -2.5792 C.2       1 UNL1        0.5690
     14 C14         0.8629   -0.6749    0.0562 C.3       1 UNL1        0.0000
     15 C15         2.0413   -2.5835   -1.0646 C.3       1 UNL1        0.0000
     16 C16         0.7638   -1.5320    1.3193 C.3       1 UNL1        0.2700
     17 C17         1.9045   -3.3772    0.2359 C.3       1 UNL1        0.2700
     18 C18         0.9291   -1.5439   -1.2001 C.3       1 UNL1        0.3001
     19 C19         3.5114    1.7488   -4.0400 C.3       1 UNL1        0.0000
     20 C20         2.3157   -2.4871    3.8508 C.3       1 UNL1        0.1435
     21 C21         2.2606    0.8997   -3.8711 C.3       1 UNL1        0.0610
     22 C22         1.7998   -3.2601    2.6395 C.3       1 UNL1        0.2700
     23 N1          1.8803   -2.4838    1.4023 N.3       1 UNL1       -0.8100
     24 N2          1.1209   -0.7374   -2.3796 N.am      1 UNL1       -0.4771
     25 O1          3.2105    0.2125   -1.7941 O.2       1 UNL1       -0.5700
     26 H1          2.1261   -5.3507    8.4072 H         1 UNL1        0.1500
     27 H2         -2.6300   -0.8430   -6.1741 H         1 UNL1        0.1500
     28 H3          0.1855   -3.9585    7.7356 H         1 UNL1        0.1500
     29 H4          4.1542   -5.4230    6.9792 H         1 UNL1        0.1500
     30 H5         -0.7454   -2.4559   -6.2466 H         1 UNL1        0.1500
     31 H6         -2.7700    0.8189   -4.3380 H         1 UNL1        0.1500
     32 H7          0.2670   -2.6420    5.6440 H         1 UNL1        0.1500
     33 H8          4.2456   -4.1102    4.8860 H         1 UNL1        0.1500
     34 H9          0.9938   -2.4123   -4.4928 H         1 UNL1        0.1500
     35 H10        -1.0370    0.8730   -2.5773 H         1 UNL1        0.1500
     36 H11        -0.0173   -0.0267   -0.0068 H         1 UNL1        0.0000
     37 H12         1.7342   -0.0172    0.1171 H         1 UNL1        0.0000
     38 H13         3.0240   -2.1062   -1.1103 H         1 UNL1        0.0000
     39 H14         1.9876   -3.2738   -1.9131 H         1 UNL1        0.0000
     40 H15         0.7314   -0.8875    2.2077 H         1 UNL1        0.0000
     41 H16        -0.1856   -2.0803    1.2839 H         1 UNL1        0.0000
     42 H17         0.9674   -3.9460    0.1888 H         1 UNL1        0.0000
     43 H18         2.7210   -4.1067    0.3174 H         1 UNL1        0.0000
     44 H19        -0.0320   -2.0553   -1.3417 H         1 UNL1        0.0000
     45 H20         4.4036    1.1149   -4.0441 H         1 UNL1        0.0000
     46 H21         3.6097    2.4718   -3.2235 H         1 UNL1        0.0000
     47 H22         3.4844    2.3063   -4.9822 H         1 UNL1        0.0000
     48 H23         3.3558   -2.1858    3.6725 H         1 UNL1        0.0000
     49 H24         1.7486   -1.5556    3.9739 H         1 UNL1        0.0000
     50 H25         1.3878    1.5613   -3.8710 H         1 UNL1        0.0000
     51 H26         2.1933    0.2099   -4.7191 H         1 UNL1        0.0000
     52 H27         2.4033   -4.1605    2.4871 H         1 UNL1        0.0000
     53 H28         0.7567   -3.5663    2.7701 H         1 UNL1        0.0000
@<TRIPOS>BOND
     1    1    3 ar
     2    1    4 ar
     3    2    5 ar
     4    2    6 ar
     5    3    7 ar
     6    4    8 ar
     7    5    9 ar
     8    6   10 ar
     9    7   11 ar
    10    8   11 ar
    11    9   12 ar
    12   10   12 ar
    13   11   20 1
    14   12   24 1
    15   13   21 1
    16   13   24 am
    17   13   25 2
    18   14   16 1
    19   14   18 1
    20   15   17 1
    21   15   18 1
    22   16   23 1
    23   17   23 1
    24   18   24 1
    25   19   21 1
    26   20   22 1
    27   22   23 1
    28    1   26 1
    29    2   27 1
    30    3   28 1
    31    4   29 1
    32    5   30 1
    33    6   31 1
    34    7   32 1
    35    8   33 1
    36    9   34 1
    37   10   35 1
    38   14   36 1
    39   14   37 1
    40   15   38 1
    41   15   39 1
    42   16   40 1
    43   16   41 1
    44   17   42 1
    45   17   43 1
    46   18   44 1
    47   19   45 1
    48   19   46 1
    49   19   47 1
    50   20   48 1
    51   20   49 1
    52   21   50 1
    53   21   51 1
    54   22   52 1
    55   22   53 1
