@<TRIPOS>MOLECULE
*****
   54    56     0     0     0
SMALL
USER_CHARGES

@<TRIPOS>ATOM
      1 C1          8.2522    2.8753    1.4068 C.ar      1 UNL1       -0.1500
      2 C2         -2.2791   -3.7057   -3.7568 C.ar      1 UNL1       -0.1500
      3 C3          7.1996    3.6535    1.8885 C.ar      1 UNL1       -0.1500
      4 C4          8.1131    2.1810    0.2050 C.ar      1 UNL1       -0.1500
      5 C5         -2.3708   -3.3430   -2.4131 C.ar      1 UNL1       -0.1500
      6 C6         -1.1215   -3.4175   -4.4796 C.ar      1 UNL1       -0.1500
      7 C7          6.0079    3.7375    1.1684 C.ar      1 UNL1       -0.1500
      8 C8          6.9215    2.2649   -0.5151 C.ar      1 UNL1       -0.1500
      9 C9         -1.3049   -2.6919   -1.7922 C.ar      1 UNL1       -0.1500
     10 C10        -0.0556   -2.7664   -3.8587 C.ar      1 UNL1       -0.1500
     11 C11         5.8688    3.0431   -0.0334 C.ar      1 UNL1       -0.1435
     12 C12        -0.1472   -2.4036   -2.5150 C.ar      1 UNL1        0.1170
     13 C13         1.9714   -2.5118   -1.2300 C.2       1 UNL1        0.5690
     14 C14         2.2494    0.2160   -2.6352 C.3       1 UNL1        0.0000
     15 C15         0.9436    0.2936   -0.4766 C.3       1 UNL1        0.0000
     16 C16         2.3493    1.7348   -2.6204 C.3       1 UNL1        0.5030
     17 C17         1.0519    1.8120   -0.4747 C.3       1 UNL1        0.5030
     18 C18         1.0059   -0.2794   -1.8940 C.3       1 UNL1        0.3001
     19 C19         2.8663   -4.8130   -0.6418 C.3       1 UNL1        0.0000
     20 C20         4.5864    3.1328   -0.8088 C.3       1 UNL1        0.1435
     21 C21         1.7771   -4.0208   -1.3490 C.3       1 UNL1        0.0610
     22 C22         3.5623    2.0669   -0.4324 C.3       1 UNL1        0.5030
     23 N1          0.9684   -1.7221   -1.8648 N.am      1 UNL1       -0.4771
     24 N2          2.2890    2.2657   -1.2095 N.4       1 UNL1       -0.9590
     25 O1          2.9661   -2.0771   -0.6440 O.2       1 UNL1       -0.5700
     26 H1          9.1805    2.8111    1.9670 H         1 UNL1        0.1500
     27 H2         -3.1086   -4.2135   -4.2404 H         1 UNL1        0.1500
     28 H3          7.3081    4.1951    2.8237 H         1 UNL1        0.1500
     29 H4          8.9328    1.5759   -0.1708 H         1 UNL1        0.1500
     30 H5         -3.2716   -3.5680   -1.8498 H         1 UNL1        0.1500
     31 H6         -1.0500   -3.7010   -5.5257 H         1 UNL1        0.1500
     32 H7          5.1930    4.3461    1.5515 H         1 UNL1        0.1500
     33 H8          6.8221    1.7204   -1.4504 H         1 UNL1        0.1500
     34 H9         -1.3877   -2.4141   -0.7444 H         1 UNL1        0.1500
     35 H10         0.8417   -2.5469   -4.4321 H         1 UNL1        0.1500
     36 H11         2.2020   -0.1273   -3.6724 H         1 UNL1        0.0000
     37 H12         3.1526   -0.2192   -2.2021 H         1 UNL1        0.0000
     38 H13         1.7342   -0.1355    0.1448 H         1 UNL1        0.0000
     39 H14        -0.0063    0.0019   -0.0176 H         1 UNL1        0.0000
     40 H15         3.2908    2.0905   -3.0695 H         1 UNL1        0.0000
     41 H16         1.5082    2.1804   -3.1744 H         1 UNL1        0.0000
     42 H17         0.1851    2.2583   -0.9873 H         1 UNL1        0.0000
     43 H18         1.1017    2.2230    0.5474 H         1 UNL1        0.0000
     44 H19         0.1101    0.0292   -2.4467 H         1 UNL1        0.0000
     45 H20         2.8915   -4.5586    0.4223 H         1 UNL1        0.0000
     46 H21         3.8511   -4.5958   -1.0685 H         1 UNL1        0.0000
     47 H22         2.6905   -5.8902   -0.7312 H         1 UNL1        0.0000
     48 H23         4.1392    4.1199   -0.6310 H         1 UNL1        0.0000
     49 H24         4.7890    3.0906   -1.8870 H         1 UNL1        0.0000
     50 H25         1.7777   -4.2971   -2.4088 H         1 UNL1        0.0000
     51 H26         0.8119   -4.2865   -0.9049 H         1 UNL1        0.0000
     52 H27         3.2923    2.1443    0.6250 H         1 UNL1        0.0000
     53 H28         3.9093    1.0510   -0.6443 H         1 UNL1        0.0000
     54 H29         2.1884    3.3180   -1.3080 H         1 UNL1        0.4500
@<TRIPOS>BOND
     1    1    3 ar
     2    1    4 ar
     3    2    5 ar
     4    2    6 ar
     5    3    7 ar
     6    4    8 ar
     7    5    9 ar
     8    6   10 ar
     9    7   11 ar
    10    8   11 ar
    11    9   12 ar
    12   10   12 ar
    13   11   20 1
    14   12   23 1
    15   13   21 1
    16   13   23 am
    17   13   25 2
    18   14   16 1
    19   14   18 1
    20   15   17 1
    21   15   18 1
    22   16   24 1
    23   17   24 1
    24   18   23 1
    25   19   21 1
    26   20   22 1
    27   22   24 1
    28    1   26 1
    29    2   27 1
    30    3   28 1
    31    4   29 1
    32    5   30 1
    33    6   31 1
    34    7   32 1
    35    8   33 1
    36    9   34 1
    37   10   35 1
    38   14   36 1
    39   14   37 1
    40   15   38 1
    41   15   39 1
    42   16   40 1
    43   16   41 1
    44   17   42 1
    45   17   43 1
    46   18   44 1
    47   19   45 1
    48   19   46 1
    49   19   47 1
    50   20   48 1
    51   20   49 1
    52   21   50 1
    53   21   51 1
    54   22   52 1
    55   22   53 1
    56   24   54 1
