@<TRIPOS>MOLECULE
*****
   41    45     0     0     0
SMALL
USER_CHARGES

@<TRIPOS>ATOM
      1 C1         -0.1684   -0.7934    0.7233 C.ar      1 UNL1       -0.1014
      2 C2         -0.2309   -0.4759    2.0950 C.ar      1 UNL1       -0.1716
      3 C3         -0.3549   -2.1095    0.2966 C.ar      1 UNL1       -0.1001
      4 C4         -0.5624   -3.0656    1.2743 C.ar      1 UNL1       -0.1620
      5 C5         -0.7060   -2.7477    2.6064 C.ar      1 UNL1        0.1117
      6 C6         -0.5184   -1.4578    3.0518 C.ar      1 UNL1        0.1461
      7 C7         -2.9587   -4.2185   -0.1517 C.2       1 UNL1       -0.1811
      8 C8         -3.6365   -4.2814    1.0034 C.2       1 UNL1       -0.1447
      9 C9         -0.4577   -2.5111   -1.1505 C.3       1 UNL1       -0.0294
     10 C10         0.5994   -5.2426    0.9701 C.3       1 UNL1       -0.0955
     11 C11         1.4390   -4.8194   -0.2362 C.3       1 UNL1        0.1140
     12 C12        -1.5417   -4.7187   -0.2597 C.3       1 UNL1       -0.0261
     13 C13        -3.0558   -4.8837    2.2518 C.3       1 UNL1        0.1537
     14 C14        -0.7162   -4.0296   -1.3830 C.3       1 UNL1        0.1527
     15 C15        -1.5105   -4.8324    2.3753 C.3       1 UNL1        0.1572
     16 C16        -0.7659   -4.5280    1.0528 C.3       1 UNL1       -0.0309
     17 C17         1.4117   -4.4911   -2.7151 C.3       1 UNL1        0.0842
     18 N1          0.5996   -4.8193   -1.4907 N.4       1 UNL1       -0.6883
     19 O1         -1.0998   -3.8206    3.3600 O.3       1 UNL1       -0.2500
     20 O2         -0.6389   -1.1344    4.3628 O.3       1 UNL1       -0.4563
     21 O3         -3.6755   -4.2854    3.3871 O.3       1 UNL1       -0.5552
     22 H1          0.0001    0.0000   -0.0003 H         1 UNL1        0.1469
     23 H2         -0.0895    0.5569    2.4049 H         1 UNL1        0.1540
     24 H3         -3.4524   -3.8402   -1.0416 H         1 UNL1        0.1450
     25 H4         -4.6718   -3.9525    1.0229 H         1 UNL1        0.1546
     26 H5         -1.3177   -1.9706   -1.5688 H         1 UNL1        0.0975
     27 H6          0.4207   -2.1571   -1.6975 H         1 UNL1        0.0637
     28 H7          0.4275   -6.3260    0.9155 H         1 UNL1        0.0681
     29 H8          1.1896   -5.0715    1.8799 H         1 UNL1        0.1140
     30 H9          1.8648   -3.8183   -0.1149 H         1 UNL1        0.1180
     31 H10         2.2595   -5.5281   -0.3938 H         1 UNL1        0.0971
     32 H11        -1.6204   -5.7903   -0.4943 H         1 UNL1        0.0652
     33 H12        -3.3643   -5.9372    2.2485 H         1 UNL1        0.0570
     34 H13        -1.2114   -4.1702   -2.3518 H         1 UNL1        0.0954
     35 H14        -1.1818   -5.7951    2.7881 H         1 UNL1        0.0991
     36 H15         1.7476   -3.4564   -2.6254 H         1 UNL1        0.1069
     37 H16         2.2596   -5.1779   -2.7476 H         1 UNL1        0.1019
     38 H17         0.7681   -4.6204   -3.5873 H         1 UNL1        0.1007
     39 H18         0.3127   -5.7979   -1.6304 H         1 UNL1        0.4408
     40 H19        -0.5000   -0.1810    4.4938 H         1 UNL1        0.4336
     41 H20        -4.6240   -4.4748    3.3161 H         1 UNL1        0.4132
@<TRIPOS>BOND
     1    1    2 ar
     2    1    3 ar
     3    2    6 ar
     4    3    4 ar
     5    3    9 1
     6    4    5 ar
     7    4   16 1
     8    5    6 ar
     9    5   19 1
    10    6   20 1
    11    7    8 2
    12    7   12 1
    13    8   13 1
    14    9   14 1
    15   10   11 1
    16   10   16 1
    17   11   18 1
    18   12   14 1
    19   12   16 1
    20   13   15 1
    21   13   21 1
    22   14   18 1
    23   15   16 1
    24   15   19 1
    25   17   18 1
    26    1   22 1
    27    2   23 1
    28    7   24 1
    29    8   25 1
    30    9   26 1
    31    9   27 1
    32   10   28 1
    33   10   29 1
    34   11   30 1
    35   11   31 1
    36   12   32 1
    37   13   33 1
    38   14   34 1
    39   15   35 1
    40   17   36 1
    41   17   37 1
    42   17   38 1
    43   18   39 1
    44   20   40 1
    45   21   41 1
