@<TRIPOS>MOLECULE
*****
   40    44     0     0     0
SMALL
USER_CHARGES

@<TRIPOS>ATOM
      1 C1          0.0848    0.6118    2.8631 C.ar      1 UNL1       -0.1500
      2 C2          1.4588    0.4002    3.1093 C.ar      1 UNL1       -0.1500
      3 C3         -0.4193    0.5214    1.5656 C.ar      1 UNL1       -0.1435
      4 C4          0.4896    0.2414    0.5637 C.ar      1 UNL1       -0.1435
      5 C5          1.8196   -0.0378    0.8035 C.ar      1 UNL1        0.0825
      6 C6          2.3406    0.0593    2.0733 C.ar      1 UNL1        0.0825
      7 C7          1.0891   -2.2672   -1.1226 C.2       1 UNL1        0.4480
      8 C8         -1.8817    0.5991    1.2153 C.3       1 UNL1        0.1435
      9 C9         -0.3119   -2.7302   -1.4534 C.3       1 UNL1        0.0610
     10 C10        -1.3416   -1.9022   -0.6933 C.3       1 UNL1        0.0000
     11 C11         0.2686    1.5220   -1.5467 C.3       1 UNL1        0.0000
     12 C12        -0.8391    2.4680   -1.0489 C.3       1 UNL1        0.2700
     13 C13         1.3835   -0.7709   -1.2547 C.3       1 UNL1        0.3410
     14 C14        -1.2247   -0.4244   -1.0878 C.3       1 UNL1        0.0000
     15 C15        -2.1954    0.5259   -0.3208 C.3       1 UNL1        0.2700
     16 C16         0.1915    0.1272   -0.8892 C.3       1 UNL1        0.1435
     17 C17        -3.1949    2.7584   -0.5895 C.3       1 UNL1        0.2700
     18 N1         -2.1593    1.8291   -1.0282 N.3       1 UNL1       -0.8100
     19 O1          1.9691   -3.0762   -0.8263 O.2       1 UNL1       -0.5700
     20 O2          2.4727   -0.4551   -0.3325 O.3       1 UNL1       -0.3625
     21 O3          3.6470   -0.1952    2.3285 O.3       1 UNL1       -0.5325
     22 H1         -0.5790    0.8261    3.6968 H         1 UNL1        0.1500
     23 H2          1.8279    0.4738    4.1298 H         1 UNL1        0.1500
     24 H3         -2.3720   -0.2611    1.6907 H         1 UNL1        0.0000
     25 H4         -2.3215    1.4921    1.6706 H         1 UNL1        0.0000
     26 H5         -0.4557   -2.6528   -2.5363 H         1 UNL1        0.0000
     27 H6         -0.4100   -3.7845   -1.1731 H         1 UNL1        0.0000
     28 H7         -2.3482   -2.2657   -0.9313 H         1 UNL1        0.0000
     29 H8         -1.2013   -2.0437    0.3842 H         1 UNL1        0.0000
     30 H9          0.1713    1.4062   -2.6347 H         1 UNL1        0.0000
     31 H10         1.2429    1.9962   -1.3713 H         1 UNL1        0.0000
     32 H11        -0.5769    2.8553   -0.0565 H         1 UNL1        0.0000
     33 H12        -0.8625    3.3359   -1.7197 H         1 UNL1        0.0000
     34 H13         1.7285   -0.5946   -2.2800 H         1 UNL1        0.0000
     35 H14        -1.4723   -0.3797   -2.1601 H         1 UNL1        0.0000
     36 H15        -3.2119    0.1257   -0.4332 H         1 UNL1        0.0000
     37 H16        -4.1691    2.2476   -0.5858 H         1 UNL1        0.0000
     38 H17        -2.9632    3.1129    0.4257 H         1 UNL1        0.0000
     39 H18        -3.2333    3.6159   -1.2774 H         1 UNL1        0.0000
     40 H19         3.8343   -0.1039    3.2785 H         1 UNL1        0.4500
@<TRIPOS>BOND
     1    1    2 ar
     2    1    3 ar
     3    2    6 ar
     4    3    4 ar
     5    3    8 1
     6    4    5 ar
     7    4   16 1
     8    5    6 ar
     9    5   20 1
    10    6   21 1
    11    7    9 1
    12    7   13 1
    13    7   19 2
    14    8   15 1
    15    9   10 1
    16   10   14 1
    17   11   12 1
    18   11   16 1
    19   12   18 1
    20   13   16 1
    21   13   20 1
    22   14   15 1
    23   14   16 1
    24   15   18 1
    25   17   18 1
    26    1   22 1
    27    2   23 1
    28    8   24 1
    29    8   25 1
    30    9   26 1
    31    9   27 1
    32   10   28 1
    33   10   29 1
    34   11   30 1
    35   11   31 1
    36   12   32 1
    37   12   33 1
    38   13   34 1
    39   14   35 1
    40   15   36 1
    41   17   37 1
    42   17   38 1
    43   17   39 1
    44   21   40 1
