@<TRIPOS>MOLECULE
*****
   33    34     0     0     0
SMALL
USER_CHARGES

@<TRIPOS>ATOM
      1 C1         -3.8412   -0.9287    1.6198 C.ar      1 UNL1       -0.1159
      2 C2         -3.6461   -2.2983    1.7978 C.ar      1 UNL1       -0.0767
      3 C3         -2.8252   -0.0310    1.9479 C.ar      1 UNL1       -0.0953
      4 C4         -2.4350   -2.7702    2.3041 C.ar      1 UNL1       -0.1052
      5 C5         -1.6141   -0.5029    2.4542 C.ar      1 UNL1       -0.1490
      6 C6         -1.4190   -1.8726    2.6323 C.ar      1 UNL1        0.0046
      7 C7          0.7505    0.2660    1.9818 C.2       1 UNL1        0.5755
      8 C8          0.7027    0.6602    0.5188 C.3       1 UNL1       -0.1654
      9 C9          0.2932    2.1174    0.3785 C.3       1 UNL1       -0.0837
     10 C10        -1.0017    2.4136    1.1293 C.3       1 UNL1       -0.0873
     11 C11        -0.8836    2.0118    2.6034 C.3       1 UNL1       -0.0922
     12 C12        -0.5256    0.5162    2.8037 C.3       1 UNL1        0.1080
     13 C13        -1.3260    0.6268    5.1817 C.3       1 UNL1        0.0842
     14 N1         -0.1805    0.3849    4.2720 N.4       1 UNL1       -0.7717
     15 O1          1.7481   -0.2798    2.4542 O.2       1 UNL1       -0.5040
     16 Cl1         0.0657   -2.4936    3.2560 Cl        1 UNL1       -0.0654
     17 H1         -4.7840   -0.5615    1.2248 H         1 UNL1        0.1658
     18 H2         -4.4369   -2.9970    1.5411 H         1 UNL1        0.1700
     19 H3         -2.9875    1.0342    1.8049 H         1 UNL1        0.1535
     20 H4         -2.2985   -3.8406    2.4358 H         1 UNL1        0.1765
     21 H5          1.6937    0.5097    0.0772 H         1 UNL1        0.1080
     22 H6          0.0027   -0.0014   -0.0018 H         1 UNL1        0.0942
     23 H7          1.0906    2.7602    0.7724 H         1 UNL1        0.0639
     24 H8          0.1728    2.3684   -0.6812 H         1 UNL1        0.0860
     25 H9         -1.2258    3.4843    1.0605 H         1 UNL1        0.0820
     26 H10        -1.8370    1.8834    0.6569 H         1 UNL1        0.0654
     27 H11        -0.1127    2.6443    3.0654 H         1 UNL1        0.0646
     28 H12        -1.8310    2.2438    3.1071 H         1 UNL1        0.0700
     29 H13        -1.7038    1.6314    4.9829 H         1 UNL1        0.0997
     30 H14        -2.0861   -0.1276    4.9698 H         1 UNL1        0.1103
     31 H15        -0.9622    0.5403    6.2073 H         1 UNL1        0.1051
     32 H16         0.1972   -0.5547    4.4358 H         1 UNL1        0.4720
     33 H17         0.5771    1.0415    4.4892 H         1 UNL1        0.4526
@<TRIPOS>BOND
     1    1    2 ar
     2    1    3 ar
     3    2    4 ar
     4    3    5 ar
     5    4    6 ar
     6    5    6 ar
     7    5   12 1
     8    6   16 1
     9    7    8 1
    10    7   12 1
    11    7   15 2
    12    8    9 1
    13    9   10 1
    14   10   11 1
    15   11   12 1
    16   12   14 1
    17   13   14 1
    18    1   17 1
    19    2   18 1
    20    3   19 1
    21    4   20 1
    22    8   21 1
    23    8   22 1
    24    9   23 1
    25    9   24 1
    26   10   25 1
    27   10   26 1
    28   11   27 1
    29   11   28 1
    30   13   29 1
    31   13   30 1
    32   13   31 1
    33   14   32 1
    34   14   33 1
