@<TRIPOS>MOLECULE
*****
   32    33     0     0     0
SMALL
USER_CHARGES

@<TRIPOS>ATOM
      1 C1          1.7477   -5.5051    1.4202 C.ar      1 UNL1       -0.1500
      2 C2          0.5293   -5.9874    1.8982 C.ar      1 UNL1       -0.1500
      3 C3          2.0962   -4.1694    1.6208 C.ar      1 UNL1       -0.1500
      4 C4         -0.3407   -5.1340    2.5768 C.ar      1 UNL1       -0.1500
      5 C5          1.2262   -3.3160    2.2994 C.ar      1 UNL1       -0.1435
      6 C6          0.0078   -3.7983    2.7774 C.ar      1 UNL1        0.1770
      7 C7          0.6366   -0.8953    1.8365 C.2       1 UNL1        0.4480
      8 C8          0.6950   -0.7817    0.3251 C.3       1 UNL1        0.0610
      9 C9          2.1022   -0.4399   -0.1342 C.3       1 UNL1        0.0000
     10 C10         3.1282   -1.4134    0.4345 C.3       1 UNL1        0.0000
     11 C11         3.0442   -1.4584    1.9616 C.3       1 UNL1        0.0000
     12 C12         1.6457   -1.8573    2.4964 C.3       1 UNL1        0.4745
     13 C13         2.5300   -2.4341    4.6456 C.3       1 UNL1        0.2700
     14 N1          1.6210   -1.5599    3.9209 N.3       1 UNL1       -0.9000
     15 O1         -0.2441   -0.3109    2.4696 O.2       1 UNL1       -0.5700
     16 Cl1        -1.0941   -2.7724    3.6216 Cl        1 UNL1       -0.1770
     17 H1          2.4254   -6.1701    0.8925 H         1 UNL1        0.1500
     18 H2          0.2589   -7.0277    1.7429 H         1 UNL1        0.1500
     19 H3          3.0482   -3.8040    1.2446 H         1 UNL1        0.1500
     20 H4         -1.2858   -5.5257    2.9440 H         1 UNL1        0.1500
     21 H5          0.3551   -1.7274   -0.1101 H         1 UNL1        0.0000
     22 H6          0.0008    0.0013    0.0010 H         1 UNL1        0.0000
     23 H7          2.1481   -0.4495   -1.2288 H         1 UNL1        0.0000
     24 H8          2.3550    0.5778    0.1888 H         1 UNL1        0.0000
     25 H9          2.9692   -2.4133    0.0142 H         1 UNL1        0.0000
     26 H10         4.1344   -1.0993    0.1339 H         1 UNL1        0.0000
     27 H11         3.8043   -2.1572    2.3358 H         1 UNL1        0.0000
     28 H12         3.3196   -0.4649    2.3437 H         1 UNL1        0.0000
     29 H13         2.2301   -3.4817    4.4951 H         1 UNL1        0.0000
     30 H14         3.5543   -2.2888    4.2718 H         1 UNL1        0.0000
     31 H15         2.4934   -2.1929    5.7182 H         1 UNL1        0.0000
     32 H16         1.8990   -0.5907    4.0605 H         1 UNL1        0.3600
@<TRIPOS>BOND
     1    1    2 ar
     2    1    3 ar
     3    2    4 ar
     4    3    5 ar
     5    4    6 ar
     6    5    6 ar
     7    5   12 1
     8    6   16 1
     9    7    8 1
    10    7   12 1
    11    7   15 2
    12    8    9 1
    13    9   10 1
    14   10   11 1
    15   11   12 1
    16   12   14 1
    17   13   14 1
    18    1   17 1
    19    2   18 1
    20    3   19 1
    21    4   20 1
    22    8   21 1
    23    8   22 1
    24    9   23 1
    25    9   24 1
    26   10   25 1
    27   10   26 1
    28   11   27 1
    29   11   28 1
    30   13   29 1
    31   13   30 1
    32   13   31 1
    33   14   32 1
