@<TRIPOS>MOLECULE
*****
   44    46     0     0     0
SMALL
USER_CHARGES

@<TRIPOS>ATOM
      1 C1         -4.2375   -6.5402   -2.8694 C.ar      1 UNL1       -0.1500
      2 C2         -4.2183   -5.3839   -3.6492 C.ar      1 UNL1       -0.1500
      3 C3         -3.1989   -6.7947   -1.9736 C.ar      1 UNL1       -0.1500
      4 C4         -3.1606   -4.4820   -3.5332 C.ar      1 UNL1       -0.1500
      5 C5         -2.1412   -5.8928   -1.8577 C.ar      1 UNL1       -0.1500
      6 C6         -2.1220   -4.7364   -2.6375 C.ar      1 UNL1       -0.1435
      7 C7          1.2969   -4.5196   -4.3446 C.3       1 UNL1        0.0000
      8 C8          0.0620   -3.7988   -4.8749 C.3       1 UNL1        0.0000
      9 C9          0.9959   -5.3017   -3.0705 C.3       1 UNL1        0.0000
     10 C10        -2.9317   -1.3421    0.5180 C.3       1 UNL1        0.0000
     11 C11        -2.7683   -0.7888   -0.8936 C.3       1 UNL1        0.0000
     12 C12        -1.7473   -2.2200    0.9076 C.3       1 UNL1        0.0000
     13 C13        -0.6063   -2.9417   -3.7942 C.3       1 UNL1        0.0000
     14 C14         0.3575   -4.4047   -2.0082 C.3       1 UNL1        0.0000
     15 C15        -2.5203   -1.8962   -1.9078 C.3       1 UNL1        0.5030
     16 C16        -1.5026   -3.3220   -0.1131 C.3       1 UNL1        0.5030
     17 C17        -0.9560   -3.7430   -2.5094 C.3       1 UNL1        0.6465
     18 N1         -1.3202   -2.7080   -1.4809 N.4       1 UNL1       -0.9590
     19 H1         -5.0618   -7.2418   -2.9589 H         1 UNL1        0.1500
     20 H2         -5.0274   -5.1850   -4.3459 H         1 UNL1        0.1500
     21 H3         -3.2141   -7.6944   -1.3656 H         1 UNL1        0.1500
     22 H4         -3.1540   -3.5836   -4.1450 H         1 UNL1        0.1500
     23 H5         -1.3364   -6.0993   -1.1572 H         1 UNL1        0.1500
     24 H6          1.6754   -5.2069   -5.1125 H         1 UNL1        0.0000
     25 H7          2.0941   -3.7918   -4.1512 H         1 UNL1        0.0000
     26 H8          0.3381   -3.1727   -5.7324 H         1 UNL1        0.0000
     27 H9         -0.6581   -4.5372   -5.2491 H         1 UNL1        0.0000
     28 H10         0.3199   -6.1279   -3.3025 H         1 UNL1        0.0000
     29 H11         1.9174   -5.7424   -2.6832 H         1 UNL1        0.0000
     30 H12        -3.0322   -0.5164    1.2313 H         1 UNL1        0.0000
     31 H13        -3.8562   -1.9298    0.5751 H         1 UNL1        0.0000
     32 H14        -3.6687   -0.2306   -1.1742 H         1 UNL1        0.0000
     33 H15        -1.9345   -0.0761   -0.9154 H         1 UNL1        0.0000
     34 H16        -0.8465   -1.6011    1.0041 H         1 UNL1        0.0000
     35 H17        -1.9308   -2.6667    1.8913 H         1 UNL1        0.0000
     36 H18         0.0394   -2.0971   -3.5496 H         1 UNL1        0.0000
     37 H19        -1.5229   -2.5200   -4.2136 H         1 UNL1        0.0000
     38 H20         0.1377   -5.0165   -1.1335 H         1 UNL1        0.0000
     39 H21         1.0697   -3.6454   -1.6929 H         1 UNL1        0.0000
     40 H22        -3.3736   -2.5782   -1.9834 H         1 UNL1        0.0000
     41 H23        -2.2978   -1.4741   -2.8924 H         1 UNL1        0.0000
     42 H24        -0.5866   -3.8714    0.1250 H         1 UNL1        0.0000
     43 H25        -2.3457   -4.0184   -0.1709 H         1 UNL1        0.0000
     44 H26        -0.5234   -2.0567   -1.4152 H         1 UNL1        0.4500
@<TRIPOS>BOND
     1    1    2 ar
     2    1    3 ar
     3    2    4 ar
     4    3    5 ar
     5    4    6 ar
     6    5    6 ar
     7    6   17 1
     8    7    8 1
     9    7    9 1
    10    8   13 1
    11    9   14 1
    12   10   11 1
    13   10   12 1
    14   11   15 1
    15   12   16 1
    16   13   17 1
    17   14   17 1
    18   15   18 1
    19   16   18 1
    20   17   18 1
    21    1   19 1
    22    2   20 1
    23    3   21 1
    24    4   22 1
    25    5   23 1
    26    7   24 1
    27    7   25 1
    28    8   26 1
    29    8   27 1
    30    9   28 1
    31    9   29 1
    32   10   30 1
    33   10   31 1
    34   11   32 1
    35   11   33 1
    36   12   34 1
    37   12   35 1
    38   13   36 1
    39   13   37 1
    40   14   38 1
    41   14   39 1
    42   15   40 1
    43   15   41 1
    44   16   42 1
    45   16   43 1
    46   18   44 1
