@<TRIPOS>MOLECULE
*****
   43    45     0     0     0
SMALL
USER_CHARGES

@<TRIPOS>ATOM
      1 C1         -1.1016    3.4112    6.8465 C.ar      1 UNL1       -0.1500
      2 C2         -1.4626    2.1444    6.3879 C.ar      1 UNL1       -0.1500
      3 C3         -1.1186    4.4997    5.9744 C.ar      1 UNL1       -0.1500
      4 C4         -1.8406    1.9659    5.0571 C.ar      1 UNL1       -0.1500
      5 C5         -1.4966    4.3213    4.6436 C.ar      1 UNL1       -0.1500
      6 C6         -1.8576    3.0544    4.1850 C.ar      1 UNL1       -0.1435
      7 C7         -5.2445    3.2837    2.3746 C.3       1 UNL1        0.0000
      8 C8         -4.6884    2.0480    3.0707 C.3       1 UNL1        0.0000
      9 C9         -4.2909    4.4667    2.4858 C.3       1 UNL1        0.0000
     10 C10         1.8099    1.9288    1.7842 C.3       1 UNL1        0.0000
     11 C11         1.2182    3.2637    1.3461 C.3       1 UNL1        0.0000
     12 C12         0.7523    0.8326    1.7265 C.3       1 UNL1        0.0000
     13 C13        -3.2978    1.6978    2.5426 C.3       1 UNL1        0.0000
     14 C14        -2.8760    4.1103    2.0186 C.3       1 UNL1        0.0000
     15 C15        -0.0573    3.5894    2.1246 C.3       1 UNL1        0.2700
     16 C16        -0.5085    1.2353    2.4932 C.3       1 UNL1        0.2700
     17 C17        -2.2769    2.8571    2.7077 C.3       1 UNL1        0.4135
     18 N1         -1.0464    2.5099    1.9972 N.3       1 UNL1       -0.8100
     19 H1         -0.8086    3.5502    7.8831 H         1 UNL1        0.1500
     20 H2         -1.4505    1.2969    7.0671 H         1 UNL1        0.1500
     21 H3         -0.8387    5.4864    6.3313 H         1 UNL1        0.1500
     22 H4         -2.1202    0.9752    4.7086 H         1 UNL1        0.1500
     23 H5         -1.5068    5.1751    3.9713 H         1 UNL1        0.1500
     24 H6         -5.4349    3.0596    1.3184 H         1 UNL1        0.0000
     25 H7         -6.2108    3.5504    2.8217 H         1 UNL1        0.0000
     26 H8         -4.6320    2.2326    4.1462 H         1 UNL1        0.0000
     27 H9         -5.3696    1.2058    2.9282 H         1 UNL1        0.0000
     28 H10        -4.6787    5.3148    1.9046 H         1 UNL1        0.0000
     29 H11        -4.2517    4.8043    3.5307 H         1 UNL1        0.0000
     30 H12         2.6465    1.6655    1.1253 H         1 UNL1        0.0000
     31 H13         2.2123    2.0107    2.7999 H         1 UNL1        0.0000
     32 H14         1.9570    4.0604    1.5015 H         1 UNL1        0.0000
     33 H15         0.9997    3.2364    0.2724 H         1 UNL1        0.0000
     34 H16         0.4979    0.6192    0.6822 H         1 UNL1        0.0000
     35 H17         1.1606   -0.0930    2.1518 H         1 UNL1        0.0000
     36 H18        -2.9358    0.8115    3.0798 H         1 UNL1        0.0000
     37 H19        -3.3733    1.4029    1.4890 H         1 UNL1        0.0000
     38 H20        -2.8831    3.9774    0.9241 H         1 UNL1        0.0000
     39 H21        -2.2213    4.9799    2.2000 H         1 UNL1        0.0000
     40 H22         0.2118    3.7237    3.1796 H         1 UNL1        0.0000
     41 H23        -0.4713    4.5430    1.7701 H         1 UNL1        0.0000
     42 H24        -1.2583    0.4368    2.4134 H         1 UNL1        0.0000
     43 H25        -0.2466    1.3307    3.5543 H         1 UNL1        0.0000
@<TRIPOS>BOND
     1    1    2 ar
     2    1    3 ar
     3    2    4 ar
     4    3    5 ar
     5    4    6 ar
     6    5    6 ar
     7    6   17 1
     8    7    8 1
     9    7    9 1
    10    8   13 1
    11    9   14 1
    12   10   11 1
    13   10   12 1
    14   11   15 1
    15   12   16 1
    16   13   17 1
    17   14   17 1
    18   15   18 1
    19   16   18 1
    20   17   18 1
    21    1   19 1
    22    2   20 1
    23    3   21 1
    24    4   22 1
    25    5   23 1
    26    7   24 1
    27    7   25 1
    28    8   26 1
    29    8   27 1
    30    9   28 1
    31    9   29 1
    32   10   30 1
    33   10   31 1
    34   11   32 1
    35   11   33 1
    36   12   34 1
    37   12   35 1
    38   13   36 1
    39   13   37 1
    40   14   38 1
    41   14   39 1
    42   15   40 1
    43   15   41 1
    44   16   42 1
    45   16   43 1
