@<TRIPOS>MOLECULE
*****
   44    46     0     0     0
SMALL
USER_CHARGES

@<TRIPOS>ATOM
      1 C1         -5.8641    0.6778   -5.1026 C.ar      1 UNL1       -0.0755
      2 C2         -5.6115   -0.6936   -5.0742 C.ar      1 UNL1       -0.1407
      3 C3         -5.0542    1.5513   -4.3767 C.ar      1 UNL1       -0.1446
      4 C4         -4.5492   -1.1917   -4.3198 C.ar      1 UNL1       -0.0612
      5 C5         -3.9919    1.0533   -3.6223 C.ar      1 UNL1       -0.0635
      6 C6         -3.7394   -0.3183   -3.5939 C.ar      1 UNL1       -0.1558
      7 C7         -2.6087   -0.8485   -2.7909 C.2       1 UNL1        0.6657
      8 C8         -2.3466    0.3563    0.5841 C.2       1 UNL1        0.6048
      9 C9          1.9163   -0.7486   -0.3047 C.3       1 UNL1       -0.1044
     10 C10         0.9971   -1.5880    0.5937 C.3       1 UNL1       -0.1032
     11 C11         0.2539    0.8601   -1.3948 C.3       1 UNL1       -0.1182
     12 C12        -1.2890   -0.5813    0.0677 C.3       1 UNL1       -0.1667
     13 C13         1.3199    0.6609   -0.3063 C.3       1 UNL1        0.1407
     14 C14        -0.1078   -0.6353    1.0609 C.3       1 UNL1        0.1505
     15 C15        -0.8372   -0.2214   -1.3608 C.3       1 UNL1        0.1578
     16 C16         1.4541    1.0168    2.2060 C.3       1 UNL1        0.0889
     17 C17        -3.7547    0.7633    2.4376 C.3       1 UNL1        0.1237
     18 N1          0.5867    0.7178    1.0181 N.4       1 UNL1       -0.7053
     19 O1         -2.3342   -2.0366   -2.7234 O.2       1 UNL1       -0.5435
     20 O2         -2.7658    1.3243   -0.0357 O.2       1 UNL1       -0.4929
     21 O3         -1.9475    0.1626   -2.1639 O.3       1 UNL1       -0.4283
     22 O4         -2.7455   -0.0453    1.8245 O.3       1 UNL1       -0.4509
     23 H1         -6.6912    1.0656   -5.6900 H         1 UNL1        0.1493
     24 H2         -6.2423   -1.3736   -5.6393 H         1 UNL1        0.1533
     25 H3         -5.2506    2.6192   -4.3991 H         1 UNL1        0.1490
     26 H4         -4.3614   -2.2623   -4.3048 H         1 UNL1        0.1582
     27 H5         -3.3675    1.7432   -3.0605 H         1 UNL1        0.1538
     28 H6          2.9268   -0.7348    0.1206 H         1 UNL1        0.0835
     29 H7          1.9956   -1.1706   -1.3118 H         1 UNL1        0.1037
     30 H8          0.6016   -2.4615    0.0651 H         1 UNL1        0.1088
     31 H9          1.5673   -1.9612    1.4527 H         1 UNL1        0.0853
     32 H10        -0.2021    1.8540   -1.2941 H         1 UNL1        0.0994
     33 H11         0.7267    0.8584   -2.3850 H         1 UNL1        0.1109
     34 H12        -1.7747   -1.5660    0.0384 H         1 UNL1        0.1511
     35 H13         2.0727    1.4550   -0.3366 H         1 UNL1        0.1179
     36 H14        -0.4437   -0.8257    2.0858 H         1 UNL1        0.1350
     37 H15        -0.4286   -1.1282   -1.8241 H         1 UNL1        0.0949
     38 H16         2.2119    0.2339    2.2717 H         1 UNL1        0.1027
     39 H17         1.9126    1.9947    2.0473 H         1 UNL1        0.1018
     40 H18         0.8168    1.0214    3.0924 H         1 UNL1        0.1032
     41 H19        -4.0003    0.3568    3.4217 H         1 UNL1        0.0841
     42 H20        -4.6456    0.7777    1.8048 H         1 UNL1        0.0685
     43 H21        -3.3742    1.7812    2.5510 H         1 UNL1        0.0472
     44 H22        -0.1113    1.4723    0.9886 H         1 UNL1        0.4613
@<TRIPOS>BOND
     1    1    2 ar
     2    1    3 ar
     3    2    4 ar
     4    3    5 ar
     5    4    6 ar
     6    5    6 ar
     7    6    7 1
     8    7   19 2
     9    7   21 1
    10    8   12 1
    11    8   20 2
    12    8   22 1
    13    9   10 1
    14    9   13 1
    15   10   14 1
    16   11   13 1
    17   11   15 1
    18   12   14 1
    19   12   15 1
    20   13   18 1
    21   14   18 1
    22   15   21 1
    23   16   18 1
    24   17   22 1
    25    1   23 1
    26    2   24 1
    27    3   25 1
    28    4   26 1
    29    5   27 1
    30    9   28 1
    31    9   29 1
    32   10   30 1
    33   10   31 1
    34   11   32 1
    35   11   33 1
    36   12   34 1
    37   13   35 1
    38   14   36 1
    39   15   37 1
    40   16   38 1
    41   16   39 1
    42   16   40 1
    43   17   41 1
    44   17   42 1
    45   17   43 1
    46   18   44 1
