@<TRIPOS>MOLECULE
*****
   47    49     0     0     0
SMALL
USER_CHARGES

@<TRIPOS>ATOM
      1 C1          4.8920    2.2096   -3.8026 C.ar      1 UNL1       -0.0796
      2 C2          4.8429    1.1317   -4.6865 C.ar      1 UNL1       -0.1357
      3 C3          4.0412    2.2448   -2.6977 C.ar      1 UNL1       -0.1399
      4 C4          3.9430    0.0891   -4.4658 C.ar      1 UNL1       -0.0648
      5 C5          3.1413    1.2021   -2.4770 C.ar      1 UNL1       -0.0731
      6 C6          3.0922    0.1243   -3.3610 C.ar      1 UNL1       -0.1492
      7 C7          2.1342   -0.9855   -3.1261 C.2       1 UNL1        0.6645
      8 C8         -0.6074   -0.3117   -0.8603 C.2       1 UNL1        0.6327
      9 C9         -0.1805   -4.7660   -0.4872 C.3       1 UNL1       -0.1046
     10 C10        -1.3261   -4.0919   -1.2525 C.3       1 UNL1       -0.1010
     11 C11         1.4201   -2.8070   -0.1048 C.3       1 UNL1       -0.1174
     12 C12        -0.4703   -1.6939   -1.4387 C.3       1 UNL1       -0.1681
     13 C13         0.3363   -3.7144    0.4975 C.3       1 UNL1        0.1443
     14 C14        -1.4129   -2.6667   -0.6973 C.3       1 UNL1        0.1448
     15 C15         0.9913   -2.1821   -1.4416 C.3       1 UNL1        0.1575
     16 C16        -3.0254    2.2652   -1.8100 C.3       1 UNL1       -0.1083
     17 C17        -1.8719   -3.3681    1.7073 C.3       1 UNL1        0.0901
     18 C18        -1.8706    1.6784   -1.0265 C.3       1 UNL1        0.1397
     19 N1         -0.8776   -2.8344    0.7177 N.4       1 UNL1       -0.7117
     20 O1          1.6442   -1.6492   -4.0266 O.2       1 UNL1       -0.5305
     21 O2          0.1024    0.1309    0.0328 O.2       1 UNL1       -0.5573
     22 O3          1.8968   -1.1431   -1.7951 O.3       1 UNL1       -0.4367
     23 O4         -1.6282    0.3438   -1.4827 O.3       1 UNL1       -0.4184
     24 H1          5.5926    3.0214   -3.9745 H         1 UNL1        0.1500
     25 H2          5.5053    1.1046   -5.5468 H         1 UNL1        0.1536
     26 H3          4.0796    3.0838   -2.0092 H         1 UNL1        0.1490
     27 H4          3.9132   -0.7460   -5.1610 H         1 UNL1        0.1564
     28 H5          2.4829    1.2402   -1.6129 H         1 UNL1        0.1464
     29 H6         -0.5672   -5.6376    0.0539 H         1 UNL1        0.0829
     30 H7          0.6025   -5.1271   -1.1622 H         1 UNL1        0.1035
     31 H8         -1.1573   -4.1106   -2.3342 H         1 UNL1        0.1075
     32 H9         -2.2608   -4.6327   -1.0627 H         1 UNL1        0.0847
     33 H10         1.6865   -2.0167    0.6095 H         1 UNL1        0.1030
     34 H11         2.3431   -3.3800   -0.2593 H         1 UNL1        0.1088
     35 H12        -0.8043   -1.5986   -2.4806 H         1 UNL1        0.1462
     36 H13         0.6565   -4.1332    1.4568 H         1 UNL1        0.1173
     37 H14        -2.4368   -2.2814   -0.6419 H         1 UNL1        0.1227
     38 H15         1.0948   -2.9503   -2.2181 H         1 UNL1        0.0969
     39 H16        -2.7953    2.2980   -2.8786 H         1 UNL1        0.0637
     40 H17        -3.9335    1.6715   -1.6620 H         1 UNL1        0.0505
     41 H18        -3.2491    3.2803   -1.4655 H         1 UNL1        0.0694
     42 H19        -2.2169   -4.3379    1.3441 H         1 UNL1        0.0995
     43 H20        -1.3658   -3.4666    2.6695 H         1 UNL1        0.1024
     44 H21        -2.6971   -2.6560    1.7689 H         1 UNL1        0.1009
     45 H22        -2.1072    1.6484    0.0413 H         1 UNL1        0.0579
     46 H23        -0.9640    2.2722   -1.1762 H         1 UNL1        0.0670
     47 H24        -0.5761   -1.9248    1.0911 H         1 UNL1        0.4824
@<TRIPOS>BOND
     1    1    2 ar
     2    1    3 ar
     3    2    4 ar
     4    3    5 ar
     5    4    6 ar
     6    5    6 ar
     7    6    7 1
     8    7   20 2
     9    7   22 1
    10    8   12 1
    11    8   21 2
    12    8   23 1
    13    9   10 1
    14    9   13 1
    15   10   14 1
    16   11   13 1
    17   11   15 1
    18   12   14 1
    19   12   15 1
    20   13   19 1
    21   14   19 1
    22   15   22 1
    23   16   18 1
    24   17   19 1
    25   18   23 1
    26    1   24 1
    27    2   25 1
    28    3   26 1
    29    4   27 1
    30    5   28 1
    31    9   29 1
    32    9   30 1
    33   10   31 1
    34   10   32 1
    35   11   33 1
    36   11   34 1
    37   12   35 1
    38   13   36 1
    39   14   37 1
    40   15   38 1
    41   16   39 1
    42   16   40 1
    43   16   41 1
    44   17   42 1
    45   17   43 1
    46   17   44 1
    47   18   45 1
    48   18   46 1
    49   19   47 1
