@<TRIPOS>MOLECULE
*****
   47    49     0     0     0
SMALL
USER_CHARGES

@<TRIPOS>ATOM
      1 C1         -5.8640    0.6778   -5.1027 C.ar      1 UNL1       -0.0796
      2 C2         -5.2083   -0.4858   -5.5047 C.ar      1 UNL1       -0.1357
      3 C3         -5.4573    1.3435   -3.9463 C.ar      1 UNL1       -0.1395
      4 C4         -4.1461   -0.9839   -4.7503 C.ar      1 UNL1       -0.0644
      5 C5         -4.3950    0.8454   -3.1919 C.ar      1 UNL1       -0.0739
      6 C6         -3.7394   -0.3183   -3.5939 C.ar      1 UNL1       -0.1494
      7 C7         -2.6087   -0.8485   -2.7909 C.2       1 UNL1        0.6633
      8 C8         -2.3466    0.3563    0.5841 C.2       1 UNL1        0.6338
      9 C9          1.9163   -0.7486   -0.3047 C.3       1 UNL1       -0.1049
     10 C10         0.9971   -1.5880    0.5937 C.3       1 UNL1       -0.1011
     11 C11         0.2539    0.8601   -1.3948 C.3       1 UNL1       -0.1162
     12 C12        -1.2890   -0.5813    0.0677 C.3       1 UNL1       -0.1674
     13 C13         1.3199    0.6609   -0.3063 C.3       1 UNL1        0.1430
     14 C14        -0.1078   -0.6353    1.0609 C.3       1 UNL1        0.1451
     15 C15        -0.8372   -0.2214   -1.3608 C.3       1 UNL1        0.1561
     16 C16        -5.0923   -0.4332    2.8703 C.3       1 UNL1       -0.1079
     17 C17         1.4541    1.0168    2.2060 C.3       1 UNL1        0.0892
     18 C18        -4.2506    0.4560    1.9800 C.3       1 UNL1        0.1386
     19 N1          0.5867    0.7178    1.0181 N.4       1 UNL1       -0.7108
     20 O1         -2.3342   -2.0366   -2.7234 O.2       1 UNL1       -0.5314
     21 O2         -2.4149    1.5416    0.2884 O.2       1 UNL1       -0.5609
     22 O3         -1.9475    0.1626   -2.1639 O.3       1 UNL1       -0.4338
     23 O4         -3.1904   -0.3209    1.4138 O.3       1 UNL1       -0.4161
     24 H1         -6.6911    1.0656   -5.6901 H         1 UNL1        0.1501
     25 H2         -5.5253   -1.0041   -6.4050 H         1 UNL1        0.1535
     26 H3         -5.9676    2.2497   -3.6335 H         1 UNL1        0.1489
     27 H4         -3.6422   -1.8915   -5.0727 H         1 UNL1        0.1566
     28 H5         -4.0868    1.3724   -2.2925 H         1 UNL1        0.1456
     29 H6          2.9268   -0.7348    0.1206 H         1 UNL1        0.0830
     30 H7          1.9956   -1.1706   -1.3118 H         1 UNL1        0.1033
     31 H8          0.6016   -2.4615    0.0651 H         1 UNL1        0.1074
     32 H9          1.5673   -1.9612    1.4527 H         1 UNL1        0.0850
     33 H10        -0.2021    1.8540   -1.2941 H         1 UNL1        0.1019
     34 H11         0.7267    0.8584   -2.3850 H         1 UNL1        0.1090
     35 H12        -1.7747   -1.5660    0.0384 H         1 UNL1        0.1463
     36 H13         2.0727    1.4550   -0.3366 H         1 UNL1        0.1175
     37 H14        -0.4437   -0.8257    2.0858 H         1 UNL1        0.1220
     38 H15        -0.4286   -1.1282   -1.8241 H         1 UNL1        0.0975
     39 H16        -5.5298   -1.2562    2.2982 H         1 UNL1        0.0639
     40 H17        -4.4876   -0.8496    3.6826 H         1 UNL1        0.0502
     41 H18        -5.8996    0.1411    3.3367 H         1 UNL1        0.0693
     42 H19         2.2119    0.2339    2.2717 H         1 UNL1        0.0998
     43 H20         1.9126    1.9947    2.0473 H         1 UNL1        0.1027
     44 H21         0.8168    1.0214    3.0924 H         1 UNL1        0.1010
     45 H22        -3.8160    1.2769    2.5583 H         1 UNL1        0.0590
     46 H23        -4.8561    0.8704    1.1685 H         1 UNL1        0.0674
     47 H24        -0.1113    1.4723    0.9886 H         1 UNL1        0.4832
@<TRIPOS>BOND
     1    1    2 ar
     2    1    3 ar
     3    2    4 ar
     4    3    5 ar
     5    4    6 ar
     6    5    6 ar
     7    6    7 1
     8    7   20 2
     9    7   22 1
    10    8   12 1
    11    8   21 2
    12    8   23 1
    13    9   10 1
    14    9   13 1
    15   10   14 1
    16   11   13 1
    17   11   15 1
    18   12   14 1
    19   12   15 1
    20   13   19 1
    21   14   19 1
    22   15   22 1
    23   16   18 1
    24   17   19 1
    25   18   23 1
    26    1   24 1
    27    2   25 1
    28    3   26 1
    29    4   27 1
    30    5   28 1
    31    9   29 1
    32    9   30 1
    33   10   31 1
    34   10   32 1
    35   11   33 1
    36   11   34 1
    37   12   35 1
    38   13   36 1
    39   14   37 1
    40   15   38 1
    41   16   39 1
    42   16   40 1
    43   16   41 1
    44   17   42 1
    45   17   43 1
    46   17   44 1
    47   18   45 1
    48   18   46 1
    49   19   47 1
