@<TRIPOS>MOLECULE
*****
   46    48     0     0     0
SMALL
USER_CHARGES

@<TRIPOS>ATOM
      1 C1         -3.7860   -1.9111   -5.0953 C.ar      1 UNL1       -0.1500
      2 C2         -2.7092   -2.2116   -5.9294 C.ar      1 UNL1       -0.1500
      3 C3         -3.5572   -1.3950   -3.8197 C.ar      1 UNL1       -0.1500
      4 C4         -1.4037   -1.9962   -5.4881 C.ar      1 UNL1       -0.1500
      5 C5         -2.2517   -1.1795   -3.3783 C.ar      1 UNL1       -0.1500
      6 C6         -1.1749   -1.4801   -4.2125 C.ar      1 UNL1        0.0862
      7 C7          0.2148   -1.2508   -3.7427 C.2       1 UNL1        0.6338
      8 C8          0.6561   -0.8614   -0.1877 C.2       1 UNL1        0.6590
      9 C9          4.1881    1.3946   -1.7641 C.3       1 UNL1        0.0000
     10 C10         4.2983   -0.0019   -1.1451 C.3       1 UNL1        0.0000
     11 C11         1.6676    1.6172   -2.0826 C.3       1 UNL1        0.0000
     12 C12         1.8568   -0.7294   -1.0861 C.3       1 UNL1        0.0610
     13 C13         2.8828    1.9668   -1.2001 C.3       1 UNL1        0.2700
     14 C14         3.0409   -0.1425   -0.2772 C.3       1 UNL1        0.2700
     15 C15         1.5457    0.1071   -2.3423 C.3       1 UNL1        0.2800
     16 C16        -0.2120   -3.6940    1.9598 C.3       1 UNL1        0.0000
     17 C17         3.5091    1.7872    1.1573 C.3       1 UNL1        0.2700
     18 C18        -0.3970   -2.3259    1.3387 C.3       1 UNL1        0.2800
     19 N1          2.6908    1.2502    0.0731 N.3       1 UNL1       -0.8100
     20 O1          1.1663   -1.9204   -4.1138 O.2       1 UNL1       -0.5700
     21 O2         -0.2056   -0.0015   -0.0649 O.2       1 UNL1       -0.5700
     22 O3          0.2615   -0.2118   -2.8642 O.3       1 UNL1       -0.4300
     23 O4          0.6922   -2.0675    0.4472 O.3       1 UNL1       -0.4300
     24 H1         -4.8025   -2.0789   -5.4389 H         1 UNL1        0.1500
     25 H2         -2.8875   -2.6137   -6.9225 H         1 UNL1        0.1500
     26 H3         -4.3956   -1.1607   -3.1703 H         1 UNL1        0.1500
     27 H4         -0.5720   -2.2338   -6.1463 H         1 UNL1        0.1500
     28 H5         -2.0854   -0.7771   -2.3824 H         1 UNL1        0.1500
     29 H6          5.0450    2.0015   -1.4483 H         1 UNL1        0.0000
     30 H7          4.1971    1.3581   -2.8583 H         1 UNL1        0.0000
     31 H8          4.3762   -0.7817   -1.9096 H         1 UNL1        0.0000
     32 H9          5.2025   -0.0571   -0.5273 H         1 UNL1        0.0000
     33 H10         0.7462    1.9878   -1.6127 H         1 UNL1        0.0000
     34 H11         1.7364    2.1417   -3.0440 H         1 UNL1        0.0000
     35 H12         2.1004   -1.7535   -1.3987 H         1 UNL1        0.0000
     36 H13         2.9297    3.0543   -1.0740 H         1 UNL1        0.0000
     37 H14         3.2212   -0.7620    0.6094 H         1 UNL1        0.0000
     38 H15         2.2678   -0.1655   -3.1218 H         1 UNL1        0.0000
     39 H16        -0.1973   -4.4724    1.1919 H         1 UNL1        0.0000
     40 H17         0.7246   -3.7377    2.5254 H         1 UNL1        0.0000
     41 H18        -1.0206   -3.9097    2.6661 H         1 UNL1        0.0000
     42 H19         3.3224    1.2134    2.0771 H         1 UNL1        0.0000
     43 H20         4.5725    1.7101    0.8867 H         1 UNL1        0.0000
     44 H21         3.2489    2.8428    1.3247 H         1 UNL1        0.0000
     45 H22        -0.4108   -1.5521    2.1121 H         1 UNL1        0.0000
     46 H23        -1.3328   -2.2843    0.7734 H         1 UNL1        0.0000
@<TRIPOS>BOND
     1    1    2 ar
     2    1    3 ar
     3    2    4 ar
     4    3    5 ar
     5    4    6 ar
     6    5    6 ar
     7    6    7 1
     8    7   20 2
     9    7   22 1
    10    8   12 1
    11    8   21 2
    12    8   23 1
    13    9   10 1
    14    9   13 1
    15   10   14 1
    16   11   13 1
    17   11   15 1
    18   12   14 1
    19   12   15 1
    20   13   19 1
    21   14   19 1
    22   15   22 1
    23   16   18 1
    24   17   19 1
    25   18   23 1
    26    1   24 1
    27    2   25 1
    28    3   26 1
    29    4   27 1
    30    5   28 1
    31    9   29 1
    32    9   30 1
    33   10   31 1
    34   10   32 1
    35   11   33 1
    36   11   34 1
    37   12   35 1
    38   13   36 1
    39   14   37 1
    40   15   38 1
    41   16   39 1
    42   16   40 1
    43   16   41 1
    44   17   42 1
    45   17   43 1
    46   17   44 1
    47   18   45 1
    48   18   46 1
