@<TRIPOS>MOLECULE
*****
   23    23     0     0     0
SMALL
USER_CHARGES

@<TRIPOS>ATOM
      1 C1          1.1033   -1.2021   -1.4044 C.3       1 UNL1        0.0000
      2 C2          0.9745    0.0217   -0.5038 C.3       1 UNL1        0.0000
      3 C3          0.1816   -1.2165   -2.6228 C.3       1 UNL1        0.0000
      4 C4          1.1611    1.3687   -1.2008 C.3       1 UNL1        0.0000
      5 C5          0.6140   -0.2243   -3.6989 C.3       1 UNL1        0.0000
      6 C6         -0.0175    1.7351   -2.1015 C.3       1 UNL1        0.0000
      7 C7          0.0648    1.1963   -3.5333 C.3       1 UNL1        0.2700
      8 N1          0.8226    2.1070   -4.3669 N.3       1 UNL1       -0.9900
      9 H1          2.1461   -1.3046   -1.7298 H         1 UNL1        0.0000
     10 H2          0.8867   -2.0905   -0.7978 H         1 UNL1        0.0000
     11 H3          0.0001    0.0000    0.0002 H         1 UNL1        0.0000
     12 H4          1.7276   -0.0625    0.2899 H         1 UNL1        0.0000
     13 H5          0.2318   -2.2233   -3.0570 H         1 UNL1        0.0000
     14 H6         -0.8626   -1.0577   -2.3302 H         1 UNL1        0.0000
     15 H7          1.2290    2.1325   -0.4154 H         1 UNL1        0.0000
     16 H8          2.1115    1.4003   -1.7448 H         1 UNL1        0.0000
     17 H9          1.7109   -0.2154   -3.7564 H         1 UNL1        0.0000
     18 H10         0.2746   -0.6019   -4.6736 H         1 UNL1        0.0000
     19 H11        -0.9523    1.3888   -1.6417 H         1 UNL1        0.0000
     20 H12        -0.1085    2.8295   -2.1324 H         1 UNL1        0.0000
     21 H13        -0.9692    1.2001   -3.9218 H         1 UNL1        0.0000
     22 H14         1.1816    2.8224   -3.7844 H         1 UNL1        0.3600
     23 H15         1.5538    1.5910   -4.7902 H         1 UNL1        0.3600
@<TRIPOS>BOND
     1    1    2 1
     2    1    3 1
     3    2    4 1
     4    3    5 1
     5    4    6 1
     6    5    7 1
     7    6    7 1
     8    7    8 1
     9    1    9 1
    10    1   10 1
    11    2   11 1
    12    2   12 1
    13    3   13 1
    14    3   14 1
    15    4   15 1
    16    4   16 1
    17    5   17 1
    18    5   18 1
    19    6   19 1
    20    6   20 1
    21    7   21 1
    22    8   22 1
    23    8   23 1
