@<TRIPOS>MOLECULE
*****
   24    24     0     0     0
SMALL
USER_CHARGES

@<TRIPOS>ATOM
      1 C1          1.0849   -1.7502   -0.6365 C.3       1 UNL1       -0.0893
      2 C2          0.8826   -0.2385   -0.6065 C.3       1 UNL1       -0.0856
      3 C3          1.8922   -2.3701    0.4999 C.3       1 UNL1       -0.0751
      4 C4          2.0812    0.5680   -0.1175 C.3       1 UNL1       -0.0754
      5 C5          1.6302   -1.7808    1.8834 C.3       1 UNL1       -0.0980
      6 C6          2.1097    0.7167    1.4036 C.3       1 UNL1       -0.1005
      7 C7          2.4943   -0.5500    2.1658 C.3       1 UNL1        0.1270
      8 N1          2.3850   -0.2418    3.6264 N.4       1 UNL1       -0.8486
      9 H1          0.0843   -2.2212   -0.6441 H         1 UNL1        0.0614
     10 H2          1.5378   -2.0330   -1.6055 H         1 UNL1        0.0671
     11 H3          0.6387    0.0875   -1.6251 H         1 UNL1        0.0737
     12 H4          0.0036   -0.0034    0.0059 H         1 UNL1        0.0421
     13 H5          1.7731   -3.4728    0.5059 H         1 UNL1        0.0740
     14 H6          2.9629   -2.2040    0.2655 H         1 UNL1        0.0497
     15 H7          3.0216    0.1483   -0.4932 H         1 UNL1        0.0610
     16 H8          1.9964    1.5741   -0.5487 H         1 UNL1        0.0762
     17 H9          0.5819   -1.5138    1.9653 H         1 UNL1        0.0800
     18 H10         1.8207   -2.5304    2.6434 H         1 UNL1        0.0540
     19 H11         2.8419    1.4961    1.6592 H         1 UNL1        0.0600
     20 H12         1.1386    1.1016    1.7455 H         1 UNL1        0.0667
     21 H13         3.5312   -0.7956    1.9936 H         1 UNL1        0.1087
     22 H14         2.2240   -1.0986    4.1577 H         1 UNL1        0.4589
     23 H15         1.6075    0.3983    3.7951 H         1 UNL1        0.4543
     24 H16         3.2456    0.1937    3.9613 H         1 UNL1        0.4576
@<TRIPOS>BOND
     1    1    2 1
     2    1    3 1
     3    2    4 1
     4    3    5 1
     5    4    6 1
     6    5    7 1
     7    6    7 1
     8    7    8 1
     9    1    9 1
    10    1   10 1
    11    2   11 1
    12    2   12 1
    13    3   13 1
    14    3   14 1
    15    4   15 1
    16    4   16 1
    17    5   17 1
    18    5   18 1
    19    6   19 1
    20    6   20 1
    21    7   21 1
    22    8   22 1
    23    8   23 1
    24    8   24 1
