@<TRIPOS>MOLECULE
*****
   26    26     0     0     0
SMALL
USER_CHARGES

@<TRIPOS>ATOM
      1 C1          0.2518    0.4467   -0.9714 C.3       1 UNL1        0.0000
      2 C2          0.7397   -0.6995   -1.8605 C.3       1 UNL1        0.0000
      3 C3         -1.0004    1.1610   -1.4810 C.3       1 UNL1        0.0000
      4 C4          1.3215   -0.3165   -3.2233 C.3       1 UNL1        0.0000
      5 C5         -0.7515    2.5122   -2.1509 C.3       1 UNL1        0.0000
      6 C6          0.2951    0.2267   -4.2204 C.3       1 UNL1        0.0000
      7 C7          0.4068    2.6066   -3.1435 C.3       1 UNL1        0.0000
      8 C8          0.3261    1.7500   -4.4137 C.3       1 UNL1        0.2700
      9 N1         -0.8274    2.1481   -5.2266 N.3       1 UNL1       -0.9900
     10 H1          0.0000   -0.0003   -0.0001 H         1 UNL1        0.0000
     11 H2          1.0649    1.1520   -0.7680 H         1 UNL1        0.0000
     12 H3          1.5233   -1.2335   -1.3073 H         1 UNL1        0.0000
     13 H4         -0.0731   -1.4234   -2.0009 H         1 UNL1        0.0000
     14 H5         -1.5908    0.5096   -2.1325 H         1 UNL1        0.0000
     15 H6         -1.6528    1.3555   -0.6186 H         1 UNL1        0.0000
     16 H7          2.1729    0.3625   -3.1054 H         1 UNL1        0.0000
     17 H8          1.7390   -1.2371   -3.6531 H         1 UNL1        0.0000
     18 H9         -1.6810    2.8431   -2.6301 H         1 UNL1        0.0000
     19 H10        -0.5551    3.2449   -1.3563 H         1 UNL1        0.0000
     20 H11         0.5149   -0.2249   -5.1988 H         1 UNL1        0.0000
     21 H12        -0.7108   -0.1296   -3.9729 H         1 UNL1        0.0000
     22 H13         0.4798    3.6596   -3.4526 H         1 UNL1        0.0000
     23 H14         1.3534    2.4130   -2.6271 H         1 UNL1        0.0000
     24 H15         1.2256    1.9809   -5.0003 H         1 UNL1        0.0000
     25 H16        -1.3824    1.3426   -5.3834 H         1 UNL1        0.3600
     26 H17        -1.3328    2.8347   -4.7219 H         1 UNL1        0.3600
@<TRIPOS>BOND
     1    1    2 1
     2    1    3 1
     3    2    4 1
     4    3    5 1
     5    4    6 1
     6    5    7 1
     7    6    8 1
     8    7    8 1
     9    8    9 1
    10    1   10 1
    11    1   11 1
    12    2   12 1
    13    2   13 1
    14    3   14 1
    15    3   15 1
    16    4   16 1
    17    4   17 1
    18    5   18 1
    19    5   19 1
    20    6   20 1
    21    6   21 1
    22    7   22 1
    23    7   23 1
    24    8   24 1
    25    9   25 1
    26    9   26 1
