#
#	File Created by: Spartan Student v8 Export
#

@<TRIPOS>MOLECULE
4-bromophenol
13 13
SMALL
USER_CHARGES


@<TRIPOS>ATOM
    1   C1         2.462844828     0.014287715     0.000000000    C.ar   1  noname    0.332710
    2   C2        -0.314303523     0.000997205     0.000000000    C.ar   1  noname   -0.157595
    3   C3         1.768928438    -1.195579031    -0.000000000    C.ar   1  noname   -0.315963
    4   C4         1.758773905     1.219347573     0.000000000    C.ar   1  noname   -0.282952
    5   C5         0.371276271     1.213188255     0.000000000    C.ar   1  noname   -0.232766
    6   C6         0.377571526    -1.203129401    -0.000000000    C.ar   1  noname   -0.232297
    7   H7         2.310710324    -2.138526640    -0.000000000       H   1  noname    0.242420
    8   H8         2.312060654     2.152114959     0.000000000       H   1  noname    0.260965
    9   H9        -0.175127721     2.149826153     0.000000000       H   1  noname    0.262275
   10   O10        3.819212134     0.085066908     0.000000000     O.3   1  noname   -0.692431
   11   H11        4.186700636    -0.806577999    -0.000000000       H   1  noname    0.493595
   12   H12       -0.159265694    -2.145209582    -0.000000000       H   1  noname    0.261867
   13   Br13      -2.216552113    -0.005338173     0.000000000      Br   1  noname    0.060171


@<TRIPOS>BOND
    1      1      4    ar
    2      4      5    ar
    3      2      5    ar
    4      2      6    ar
    5      3      6    ar
    6      1      3    ar
    7      5      9    1
    8      3      7    1
    9      4      8    1
   10     10     11    1
   11      1     10    1
   12      6     12    1
   13      2     13    1
