#
#	File Created by: Spartan Student v8 Export
#

@<TRIPOS>MOLECULE
p-toluic acid
18 18
SMALL
USER_CHARGES


@<TRIPOS>ATOM
    1   C1         2.105566144    -0.017008876     0.007663475    C.ar   1  noname   -0.008744
    2   C2        -0.699763181     0.029723827     0.000101648    C.ar   1  noname   -0.195186
    3   C3         1.410400785     1.197437059     0.007288986    C.ar   1  noname   -0.243285
    4   C4         1.370737638    -1.204780963     0.007130785    C.ar   1  noname   -0.244778
    5   C5        -0.018758584    -1.188312064     0.002661805    C.ar   1  noname   -0.189726
    6   C6         0.024412437     1.224248334     0.002670519    C.ar   1  noname   -0.181315
    7   H7         1.966473829     2.131410217     0.011905796       H   1  noname    0.244412
    8   H8         1.894728913    -2.156823058     0.011543360       H   1  noname    0.243702
    9   H9        -0.576885884    -2.118039536     0.003602397       H   1  noname    0.261313
   10   H10       -0.518112885     2.163740602     0.003494562       H   1  noname    0.265347
   11   C11       -2.181711559     0.110170673    -0.002190307     C.2   1  noname    0.835395
   12   O12       -2.821155667     1.138231364    -0.003659336     O.2   1  noname   -0.615618
   13   O13       -2.778548280    -1.099662556    -0.002889558     O.3   1  noname   -0.721821
   14   H14       -3.732213659    -0.923764122    -0.004422610       H   1  noname    0.507970
   15   C15        3.612697374    -0.034762453    -0.010584113     C.3   1  noname   -0.710857
   16   H16        3.991262999     0.215851733    -1.008502635       H   1  noname    0.255815
   17   H17        4.004923144    -1.019965098     0.256934632       H   1  noname    0.246175
   18   H18        4.025968794     0.698745570     0.689378862       H   1  noname    0.251199


@<TRIPOS>BOND
    1      1      4    ar
    2      4      5    ar
    3      2      5    ar
    4      2      6    ar
    5      3      6    ar
    6      1      3    ar
    7      5      9    1
    8      6     10    1
    9      3      7    1
   10      4      8    1
   11     11     12    2
   12     11     13    1
   13     13     14    1
   14      2     11    1
   15     15     16    1
   16     15     17    1
   17     15     18    1
   18      1     15    1
