@<TRIPOS>MOLECULE
*****
   13    13     0     0     0
SMALL
USER_CHARGES

@<TRIPOS>ATOM
      1 C1          0.8675   -0.4975    0.0000 C.ar      1 UNL1        0.0000
      2 C2          1.7350    0.0000    0.0000 C.ar      1 UNL1        0.0000
      3 C3          1.7350    1.0052    0.0000 C.ar      1 UNL1        0.1401
      4 C4          0.8675    1.5129    0.0000 C.ar      1 UNL1        0.0000
      5 C5         -0.0000    1.0052    0.0000 C.ar      1 UNL1        0.0000
      6 C6          0.0000    0.0000    0.0000 C.ar      1 UNL1        0.0451
      7 O1         -0.8653   -0.5013    0.0000 O.3       1 UNL1       -0.2461
      8 Br1         2.6025    1.5026    0.0000 Br        1 UNL1       -0.1401
      9 H1          0.8675   -1.5775    0.0000 H         1 UNL1        0.0000
     10 H2          2.6695   -0.5414    0.0000 H         1 UNL1        0.0000
     11 H3          0.8675    2.5929    0.0000 H         1 UNL1        0.0000
     12 H4         -0.9369    1.5424    0.0000 H         1 UNL1        0.0000
     13 H5         -0.8653   -0.5013    0.0000 H         1 UNL1        0.2010
@<TRIPOS>BOND
     1    1    6 ar
     2    1    2 ar
     3    2    3 ar
     4    3    4 ar
     5    4    5 ar
     6    5    6 ar
     7    6    7 1
     8    3    8 1
     9    1    9 1
    10    2   10 1
    11    4   11 1
    12    5   12 1
    13    7   13 1
