@<TRIPOS>MOLECULE
*****
   12    12     0     0     0
SMALL
USER_CHARGES

@<TRIPOS>ATOM
      1 C1          1.8851   -1.0363   -0.1124 C.ar      1 <0>        -0.1500
      2 C2          2.8783   -1.6520    2.0022 C.ar      1 <0>        -0.1500
      3 C3          0.8066   -0.4630    0.5610 C.ar      1 <0>        -0.1500
      4 C4          1.7997   -1.0786    2.6757 C.ar      1 <0>        -0.1500
      5 C5          2.9210   -1.6309    0.6081 C.ar      1 <0>        -0.1710
      6 C6          0.7638   -0.4841    1.9551 C.ar      1 <0>         0.1110
      7 O1          3.9116   -2.1580   -0.0104 O.3       1 <0>        -0.8290
      8 Br1        -0.6954    0.2973    2.8672 Br        1 <0>        -0.1110
      9 H1          1.8944   -1.0063   -1.2009 H         1 <0>         0.1500
     10 H2          3.6735   -2.1096    2.5884 H         1 <0>         0.1500
     11 H3          0.0079   -0.0029   -0.0152 H         1 <0>         0.1500
     12 H4          1.7814   -1.1028    3.7623 H         1 <0>         0.1500
@<TRIPOS>BOND
     1    1    3 ar
     2    1    5 ar
     3    2    4 ar
     4    2    5 ar
     5    3    6 ar
     6    4    6 ar
     7    5    7 1
     8    6    8 1
     9    1    9 1
    10    2   10 1
    11    3   11 1
    12    4   12 1
