@<TRIPOS>MOLECULE
*****
   20    20     0     0     0
SMALL
USER_CHARGES

@<TRIPOS>ATOM
      1 C1         -0.0082   -2.3676   -4.9536 C.2       1 UNL1        0.9090
      2 C2         -0.3396    0.4881   -0.9209 C.3       1 UNL1       -0.0766
      3 C3         -1.6799   -0.1059   -1.3575 C.3       1 UNL1       -0.0782
      4 C4          0.6372    0.2135   -2.0602 C.3       1 UNL1       -0.0815
      5 C5         -1.4494   -0.6928   -2.7462 C.3       1 UNL1       -0.0726
      6 C6          0.0448   -0.9981   -2.7731 C.3       1 UNL1       -0.0493
      7 C7          0.5910   -1.1933   -4.1767 C.3       1 UNL1       -0.1888
      8 O1         -0.3611   -3.3730   -4.2784 O.co2     1 UNL1       -0.8528
      9 O2         -0.0761   -2.1766   -6.2025 O.co2     1 UNL1       -0.8527
     10 H1         -0.4177    1.5603   -0.7140 H         1 UNL1        0.0147
     11 H2          0.0001    0.0002    0.0001 H         1 UNL1        0.0210
     12 H3         -1.9816   -0.8924   -0.6562 H         1 UNL1        0.0240
     13 H4         -2.4752    0.6460   -1.3688 H         1 UNL1        0.0164
     14 H5          0.6759    1.0810   -2.7306 H         1 UNL1        0.0274
     15 H6          1.6518    0.0271   -1.6944 H         1 UNL1        0.0241
     16 H7         -2.0608   -1.5833   -2.9215 H         1 UNL1        0.0714
     17 H8         -1.7106    0.0501   -3.5100 H         1 UNL1        0.0335
     18 H9          0.2424   -1.9013   -2.1809 H         1 UNL1        0.0676
     19 H10         1.6748   -1.3434   -4.1181 H         1 UNL1        0.0195
     20 H11         0.4169   -0.2795   -4.7558 H         1 UNL1        0.0239
@<TRIPOS>BOND
     1    1    7 1
     2    1    8 1
     3    1    9 2
     4    2    3 1
     5    2    4 1
     6    3    5 1
     7    4    6 1
     8    5    6 1
     9    6    7 1
    10    2   10 1
    11    2   11 1
    12    3   12 1
    13    3   13 1
    14    4   14 1
    15    4   15 1
    16    5   16 1
    17    5   17 1
    18    6   18 1
    19    7   19 1
    20    7   20 1
