#
#	File Created by: Spartan Student v8 Export
#

@<TRIPOS>MOLECULE
cyclopentylacetic acid
21 21
SMALL
USER_CHARGES


@<TRIPOS>ATOM
    1   C1        -0.427690574     0.262529946     0.279950634     C.3   1  noname   -0.269966
    2   C2        -1.597757625     1.244190151     0.138164735     C.3   1  noname   -0.470181
    3   C3        -2.851573363     0.355760113     0.236681599     C.3   1  noname   -0.477854
    4   C4        -2.404788595    -1.054808572    -0.240457729     C.3   1  noname   -0.478623
    5   C5        -0.899767115    -0.937080052    -0.553085273     C.3   1  noname   -0.475668
    6   H6        -0.350908286    -0.052681743     1.328938268       H   1  noname    0.257808
    7   H7        -1.547071939     1.722077860    -0.850221925       H   1  noname    0.230939
    8   H8        -1.578963527     2.043204944     0.886966798       H   1  noname    0.245085
    9   H9        -3.198870223     0.312261177     1.274404248       H   1  noname    0.240057
   10   H10       -3.679383459     0.753786150    -0.357289680       H   1  noname    0.244535
   11   H11       -2.971721115    -1.392752686    -1.112945854       H   1  noname    0.243966
   12   H12       -2.571517046    -1.793988668     0.549721895       H   1  noname    0.241929
   13   H13       -0.750328124    -0.710882359    -1.618394336       H   1  noname    0.227214
   14   H14       -0.340207594    -1.847960200    -0.326939508       H   1  noname    0.261008
   15   C15        0.911402836     0.847629805    -0.147733944     C.3   1  noname   -0.575625
   16   H16        1.118302190     1.785086302     0.385781005       H   1  noname    0.273442
   17   H17        0.905662695     1.106668679    -1.214284290       H   1  noname    0.264759
   18   C18        2.081317070    -0.071126043     0.108853085     C.2   1  noname    0.852483
   19   O19        2.057160306    -1.103621738     0.735307663     O.2   1  noname   -0.616668
   20   O20        3.215951378     0.406494661    -0.442827258     O.3   1  noname   -0.721582
   21   H21        3.913257143    -0.230374929    -0.219818512       H   1  noname    0.502942


@<TRIPOS>BOND
    1      1      6    1
    2      1      2    1
    3      1      5    1
    4      1     15    1
    5      2      7    1
    6      2      8    1
    7      2      3    1
    8      3      9    1
    9      3     10    1
   10      3      4    1
   11      4     11    1
   12      4     12    1
   13      4      5    1
   14      5     13    1
   15      5     14    1
   16     15     16    1
   17     15     17    1
   18     15     18    1
   19     18     19    2
   20     18     20    1
   21     20     21    1
