#
#	File Created by: Spartan Student v8 Export
#

@<TRIPOS>MOLECULE
M0001
22 23
SMALL
USER_CHARGES


@<TRIPOS>ATOM
    1   C1         0.219976455     0.000000000    -1.645895492     C.2   1  noname   -0.251743
    2   H2         2.165378865     0.000000000    -0.802358050       H   1  noname    0.262564
    3   C3         1.103420392     0.000000000    -0.579275662     C.2   1  noname   -0.130593
    4   C4        -1.634443408     0.000000000    -0.081535576     C.2   1  noname   -0.275158
    5   C5         0.667041607     0.000000000     0.753245453     C.2   1  noname   -0.087712
    6   C6        -1.189347459     0.000000000    -1.387364990     C.2   1  noname    0.359169
    7   C7        -0.741975258     0.000000000     1.005953103     C.2   1  noname   -0.030059
    8   C8         1.571171210     0.000000000     1.845349109     C.2   1  noname   -0.194765
    9   H9        -2.252900435     0.000000000     2.551091843       H   1  noname    0.242188
   10   H10       -2.705429945     0.000000000     0.091177356       H   1  noname    0.253157
   11   C11        1.108606942     0.000000000     3.134783937     C.2   1  noname   -0.251488
   12   H12        2.637437258     0.000000000     1.638418056       H   1  noname    0.242508
   13   H13        1.805054244     0.000000000     3.966734919       H   1  noname    0.244483
   14   C14       -0.283745999     0.000000000     3.386156315     C.2   1  noname   -0.220050
   15   H15       -0.639922424     0.000000000     4.411775269       H   1  noname    0.244200
   16   C16       -1.185308038     0.000000000     2.352508295     C.2   1  noname   -0.222575
   17   O17       -2.125876757     0.000000000    -2.355738525     O.3   1  noname   -0.687921
   18   H18       -1.687438227     0.000000000    -3.225856749       H   1  noname    0.515034
   19   C19        0.827636367     0.000000000    -2.986502130     C.2   1  noname    0.806278
   20   O20        2.011048096     0.000000000    -3.235358429     O.2   1  noname   -0.588445
   21   O21       -0.090045316     0.000000000    -4.003587900     O.3   1  noname   -0.747537
   22   H22        0.419661831     0.000000000    -4.833720151       H   1  noname    0.518464


@<TRIPOS>BOND
    1      2      3    1
    2      1      3    2
    3      1      6    1
    4      3      5    1
    5      5      7    2
    6      4      6    2
    7      4      7    1
    8      8      5    1
    9      7     16    1
   10      8     11    2
   11     11     14    1
   12     14     16    2
   13      4     10    1
   14      8     12    1
   15      9     16    1
   16     14     15    1
   17     11     13    1
   18     17     18    1
   19      6     17    1
   20     19     20    2
   21     19     21    1
   22     21     22    1
   23      1     19    1
