#
#	File Created by: Spartan Student v8 Export
#

@<TRIPOS>MOLECULE
M0001
18 19
SMALL
USER_CHARGES


@<TRIPOS>ATOM
    1   H1        -2.116026965     0.000000000    -0.713665222       H   1  noname    0.277105
    2   C2        -1.086236514     0.000000000    -0.380115709     C.2   1  noname   -0.240133
    3   C3         1.641949983     0.000000000     0.440441494     C.2   1  noname   -0.289971
    4   C4        -0.037223845     0.000000000    -1.321506876     C.2   1  noname   -0.187481
    5   C5        -0.729693584     0.000000000     0.943038498     C.2   1  noname    0.254834
    6   C6         0.602749813     0.000000000     1.346388565     C.2   1  noname    0.282338
    7   C7         1.297800819     0.000000000    -0.914791551     C.2   1  noname   -0.200970
    8   H8         2.078403227     0.000000000    -1.664965095       H   1  noname    0.264079
    9   H9         2.674120646     0.000000000     0.769090105       H   1  noname    0.259082
   10   O10       -1.540103194     0.000000000     2.043808214     O.3   1  noname   -0.523531
   11   O11        0.671860920     0.000000000     2.704340699     O.3   1  noname   -0.518689
   12   C12       -0.677395527     0.000000000     3.175141346     C.3   1  noname    0.209828
   13   H13       -0.851757900     0.901536178     3.772511313       H   1  noname    0.211438
   14   H14       -0.851757900    -0.901536178     3.772511313       H   1  noname    0.211438
   15   C15       -0.419189056     0.000000000    -2.745626497     C.2   1  noname    0.804162
   16   O16       -1.560102049     0.000000000    -3.158849793     O.2   1  noname   -0.604341
   17   O17        0.641839097     0.000000000    -3.586101459     O.3   1  noname   -0.713246
   18   H18        0.260762029     0.000000000    -4.481649346       H   1  noname    0.504058


@<TRIPOS>BOND
    1      1      2    1
    2      2      5    2
    3      5      6    1
    4      3      6    2
    5      3      7    1
    6      4      7    2
    7      2      4    1
    8      7      8    1
    9      3      9    1
   10      5     10    1
   11      6     11    1
   12     12     13    1
   13     12     14    1
   14     11     12    1
   15     10     12    1
   16     15     16    2
   17     15     17    1
   18     17     18    1
   19      4     15    1
