#
#	File Created by: Spartan Student v8 Export
#

@<TRIPOS>MOLECULE
M0001
216 236
SMALL
NO_CHARGES


@<TRIPOS>ATOM
    1   H1         3.945434542    -0.254043431     2.464615630       H   1  noname
    2   C2         3.455662284     0.684355033     2.212732564    C.ar   1  noname
    3   C3         2.188365868     3.108294785     1.564465762    C.ar   1  noname
    4   C4         2.544780495     1.282263711     3.084778794    C.ar   1  noname
    5   C5         3.717515839     1.337108304     1.006848885    C.ar   1  noname
    6   C6         3.112219744     2.560149330     0.665263385    C.ar   1  noname
    7   C7         1.908228931     2.505869475     2.795979970    C.ar   1  noname
    8   H8         1.655112512     4.027793428     1.289083956       H   1  noname
    9   C9         0.934833081     3.092147055     3.795698407     C.3   1  noname
   10   H10        1.240292249     2.713961663     4.820087816       H   1  noname
   11   C11        3.470231109     3.237732326    -0.643092351     C.3   1  noname
   12   H12        4.511497560     2.889093691    -0.929811139       H   1  noname
   13   C13       -0.436043171     2.524003948     3.484482269    C.ar   1  noname
   14   C14       -2.879984543     1.324862989     2.837368914    C.ar   1  noname
   15   C15       -0.814734509     1.285212127     4.035346107    C.ar   1  noname
   16   C16       -1.331929725     3.148500913     2.604868702    C.ar   1  noname
   17   C17       -2.556876423     2.566146440     2.254918131    C.ar   1  noname
   18   C18       -2.036258967     0.676958567     3.740616849    C.ar   1  noname
   19   H19       -1.049045671     4.109558471     2.157415364       H   1  noname
   20   H20       -2.317840663    -0.271279943     4.194364907       H   1  noname
   21   C21        2.520089837     2.739860273    -1.708381797    C.ar   1  noname
   22   C22        0.769856701     1.589232039    -3.558372471    C.ar   1  noname
   23   C23        1.299675010     3.359175801    -2.014084016    C.ar   1  noname
   24   C24        2.837799029     1.539810453    -2.375326378    C.ar   1  noname
   25   C25        1.989615560     0.957203457    -3.316922870    C.ar   1  noname
   26   C26        0.396347805     2.790873200    -2.923055477    C.ar   1  noname
   27   H27        1.034613585     4.290838319    -1.505186772       H   1  noname
   28   H28        2.265148287     0.042193293    -3.837346700       H   1  noname
   29   C29       -0.975555103     3.361099095    -3.215774603     C.3   1  noname
   30   H30       -1.256380447     3.008289857    -4.259806744       H   1  noname
   31   C31       -3.510156032     3.190590699     1.255460632     C.3   1  noname
   32   H32       -4.552941433     2.820557861     1.510020010       H   1  noname
   33   C33       -3.175987266     2.661893556    -0.123834403    C.ar   1  noname
   34   C34       -2.590485248     1.528060184    -2.614501787    C.ar   1  noname
   35   C35       -3.767251386     1.453144490    -0.542610052    C.ar   1  noname
   36   C36       -2.281004917     3.286937214    -1.002797559    C.ar   1  noname
   37   C37       -1.968847215     2.739367715    -2.254970890    C.ar   1  noname
   38   C38       -3.500973224     0.874568499    -1.783660930    C.ar   1  noname
   39   H39       -1.805575631     4.233094630    -0.703753656       H   1  noname
   40   H40       -3.985300568    -0.049437303    -2.092129104       H   1  noname
   41   C41        3.519747947     4.761293394    -0.458688560     C.3   1  noname
   42   H42        2.501236266     5.182911782    -0.299190749       H   1  noname
   43   C43        0.914726842     4.632479488     3.862595058     C.3   1  noname
   44   H44        0.335532773     5.048938083     3.004717066       H   1  noname
   45   O45       -2.300179751     0.895855650    -3.831980211     O.3   1  noname
   46   O46       -0.094379459     0.941017573    -4.452784473     O.3   1  noname
   47   O47       -4.646794096     0.746402835     0.290653801     O.3   1  noname
   48   O48        2.253528301     0.572219252     4.258548732     O.3   1  noname
   49   O49        0.046316640     0.570614046     4.880918617     O.3   1  noname
   50   O50       -4.063444929     0.651654276     2.504771697     O.3   1  noname
   51   C51        1.028390887    -0.182773449     4.137811761     C.3   1  noname
   52   H52        0.726875728    -0.288047498     3.069400117       H   1  noname
   53   C53       -3.948149220    -0.065772256     1.257050967     C.3   1  noname
   54   H54       -2.879877121    -0.201353701     0.969823376       H   1  noname
   55   O55        4.593215613     0.689456934     0.125566082     O.3   1  noname
   56   C56        3.890269110    -0.002913490    -0.929028539     C.3   1  noname
   57   H57        2.818519259    -0.154781415    -0.663894140       H   1  noname
   58   O58        4.022128271     0.842798141    -2.091303588     O.3   1  noname
   59   C59       -1.077235988     0.131948221    -3.772038003     C.3   1  noname
   60   H60       -0.776010818    -0.061382257    -2.716767200       H   1  noname
   61   C61        4.566479845    -1.331799547    -1.179659360    C.ar   1  noname
   62   C62        5.470618173    -3.973211678    -1.548076462    C.ar   1  noname
   63   C63        4.487950824    -1.906002366    -2.450882111    C.ar   1  noname
   64   C64        5.090179175    -2.031465311    -0.088680434    C.ar   1  noname
   65   C65        5.533463709    -3.345095195    -0.296774421    C.ar   1  noname
   66   C66        4.945354860    -3.222595006    -2.608249244    C.ar   1  noname
   67   H67        4.115908913    -1.326770037    -3.294149368       H   1  noname
   68   H68        5.178502097    -1.546492106     0.882314487       H   1  noname
   69   C69       -1.265919127    -1.170216779    -4.516694131    C.ar   1  noname
   70   C70       -1.524596085    -3.773927483    -5.558100603    C.ar   1  noname
   71   C71       -0.155719752    -1.780567996    -5.106001514    C.ar   1  noname
   72   C72       -2.503341755    -1.815267561    -4.438510135    C.ar   1  noname
   73   C73       -2.607016473    -3.111075081    -4.963958236    C.ar   1  noname
   74   C74       -0.310349610    -3.077188650    -5.617632275    C.ar   1  noname
   75   H75        0.786180700    -1.241572064    -5.192994932       H   1  noname
   76   H76       -3.363778530    -1.301693556    -4.012416232       H   1  noname
   77   C77       -4.635427903    -1.406537702     1.383710435    C.ar   1  noname
   78   C78       -5.557076063    -4.063919813     1.520676206    C.ar   1  noname
   79   C79       -5.172215950    -2.000670332     0.238238343    C.ar   1  noname
   80   C80       -4.552423475    -2.094128176     2.597482026    C.ar   1  noname
   81   C81       -5.018212161    -3.416086089     2.640223070    C.ar   1  noname
   82   C82       -5.624285141    -3.324739873     0.331915743    C.ar   1  noname
   83   H83       -5.264465630    -1.430049089    -0.684356303       H   1  noname
   84   H84       -4.169635777    -1.595105004     3.486257870       H   1  noname
   85   C85        1.209934211    -1.546071887     4.765276879    C.ar   1  noname
   86   C86        1.445649333    -4.239245731     5.553707534    C.ar   1  noname
   87   C87        2.442199269    -2.191104730     4.626365747    C.ar   1  noname
   88   C88        0.094153871    -2.200485556     5.293997200    C.ar   1  noname
   89   C89        0.237104105    -3.541360700     5.679092849    C.ar   1  noname
   90   C90        2.534167427    -3.532084757     5.025389494    C.ar   1  noname
   91   H91        3.307300580    -1.646886614     4.250890694       H   1  noname
   92   H92       -0.843568094    -1.664607059     5.431325881       H   1  noname
   93   O93        6.051562759    -4.156124460     0.701673885     O.3   1  noname
   94   O94        0.711694381    -3.800652244    -6.214610395     O.3   1  noname
   95   O95       -3.768341438    -3.868814528    -4.934078363     O.3   1  noname
   96   O96        3.688009988    -4.294976007     4.922451338     O.3   1  noname
   97   O97       -6.160213222    -4.038753319    -0.729442395     O.3   1  noname
   98   O98       -4.979866461    -4.214812570     3.773635906     O.3   1  noname
   99   O99       -0.791958149    -4.310876717     6.201932161     O.3   1  noname
  100   O100       4.914009748    -3.914719098    -3.810122184     O.3   1  noname
  101   C101      -4.816960962    -3.432471684    -4.101797350    C.ar   1  noname
  102   C102      -7.064242169    -2.799975786    -2.575800639    C.ar   1  noname
  103   C103      -4.838256685    -3.850402873    -2.755401090    C.ar   1  noname
  104   C104      -5.859765678    -2.716511343    -4.694053571    C.ar   1  noname
  105   C105      -6.985476078    -2.404950923    -3.917538606    C.ar   1  noname
  106   C106      -5.996841836    -3.515094418    -2.026120623    C.ar   1  noname
  107   H107      -5.800833828    -2.416109202    -5.747053781       H   1  noname
  108   H108      -7.947457527    -2.564636116    -1.970016272       H   1  noname
  109   C109      -4.176233239    -3.792490642     4.849706541    C.ar   1  noname
  110   C110      -2.701088586    -3.204611455     7.142783625    C.ar   1  noname
  111   C111      -2.812362179    -4.149418782     4.865575765    C.ar   1  noname
  112   C112      -4.810080444    -3.157045375     5.919986391    C.ar   1  noname
  113   C113      -4.058879084    -2.867647946     7.068545119    C.ar   1  noname
  114   C114      -2.109555008    -3.839635126     6.047488096    C.ar   1  noname
  115   H115      -5.875220027    -2.902314384     5.864052911       H   1  noname
  116   H116      -2.114679029    -2.986713723     8.043360116       H   1  noname
  117   C117       4.734865553    -3.801902055     4.120456078    C.ar   1  noname
  118   C118       6.978964819    -3.072345728     2.633423622    C.ar   1  noname
  119   C119       5.787284992    -3.142426702     4.759425769    C.ar   1  noname
  120   C120       4.744766826    -4.114607561     2.745499236    C.ar   1  noname
  121   C121       5.902117936    -3.733918474     2.036927159    C.ar   1  noname
  122   C122       6.911276943    -2.781275200     4.002047485    C.ar   1  noname
  123   H123       5.737241834    -2.923877871     5.832907458       H   1  noname
  124   H124       7.860710282    -2.797979783     2.042041019       H   1  noname
  125   C125       4.104791169    -3.404012122    -4.842492376    C.ar   1  noname
  126   C126       2.619064669    -2.625908727    -7.071047438    C.ar   1  noname
  127   C127       2.740223659    -3.756610483    -4.880674719    C.ar   1  noname
  128   C128       4.734365534    -2.682990997    -5.859698261    C.ar   1  noname
  129   C129       3.977896323    -2.298535969    -6.976515524    C.ar   1  noname
  130   C130       2.031937390    -3.348370536    -6.028798517    C.ar   1  noname
  131   H131       5.800170928    -2.435174338    -5.788191366       H   1  noname
  132   H132       2.028305331    -2.333192405    -7.947230192       H   1  noname
  133   H133       0.339506945     4.928657421     4.764789031       H   1  noname
  134   C134      -3.529128403     4.725267711     1.370643150     C.3   1  noname
  135   C135      -1.006131109     4.897691729    -3.229887912     C.3   1  noname
  136   H136       4.072138937     4.982653001     0.485407183       H   1  noname
  137   H137      -0.997672374     5.312379909    -2.196028298       H   1  noname
  138   H138      -0.093425035     5.288663519    -3.728239822       H   1  noname
  139   H139      -2.510510305     5.142180552     1.200337269       H   1  noname
  140   H140      -3.783030597     4.994830052     2.417404522       H   1  noname
  141   C141       8.025200666    -2.086227193     4.694738432     C.2   1  noname
  142   C142      -4.746063944    -2.198098809     8.201219594     C.2   1  noname
  143   C143      -8.089023011    -1.648702591    -4.560838341     C.2   1  noname
  144   C144       4.660512957    -1.538232712    -8.053283825     C.2   1  noname
  145   O145       8.121999258    -1.780988903     5.859768588     O.2   1  noname
  146   O146      -5.902076977    -1.859477706     8.295172642     O.2   1  noname
  147   O147      -8.174120123    -1.250017623    -5.698257100     O.2   1  noname
  148   O148       5.814433413    -1.186058804    -8.120104222     O.2   1  noname
  149   C149      -4.526135813     5.391920768     0.418955781     C.3   1  noname
  150   H150      -5.232374167     4.651993631    -0.023377823       H   1  noname
  151   H151      -5.187400790     6.098319833     0.969885131       H   1  noname
  152   C152       4.204017413     5.486775322    -1.616284996     C.3   1  noname
  153   H153       5.157226218     4.984230531    -1.903560426       H   1  noname
  154   H154       3.582289260     5.454195482    -2.539434590       H   1  noname
  155   C155      -2.250074839     5.405456005    -3.971088197     C.3   1  noname
  156   H156      -3.173756467     5.029722713    -3.473766012       H   1  noname
  157   H157      -2.275159257     5.002120523    -5.009960969       H   1  noname
  158   C158       2.298284345     5.290111876     3.903589659     C.3   1  noname
  159   H159       3.104103280     4.547327394     4.105339766       H   1  noname
  160   H160       2.371089681     6.004722922     4.753702985       H   1  noname
  161   C161       4.500099511     6.903267796    -1.225958908     C.2   1  noname
  162   C162      -2.293901966     6.901552363    -4.025804410     C.2   1  noname
  163   C163       2.595659276     6.021010302     2.623824563     C.2   1  noname
  164   C164      -3.830910850     6.134240474    -0.686343892     C.2   1  noname
  165   O165      -3.176789286     7.657169757    -3.663411830     O.2   1  noname
  166   O166      -2.637386629     6.246231790    -0.892473309     O.2   1  noname
  167   O167       4.619519731     7.407778321    -0.128098353     O.2   1  noname
  168   O168       1.865383533     6.200610753     1.668053483     O.2   1  noname
  169   H169      -5.915575542    -5.090334911     1.574220399       H   1  noname
  170   H170      -1.624936881    -4.779387331    -5.962937518       H   1  noname
  171   H171       5.822120926    -4.993362485    -1.691808714       H   1  noname
  172   H172       1.537167902    -5.279688095     5.860325917       H   1  noname
  173   O173      -9.111668940    -1.410173571    -3.671417325     O.3   1  noname
  174   H174      -9.862722977    -0.901477679    -4.087142745       H   1  noname
  175   O175      -3.876295927    -1.966312880     9.242392170     O.3   1  noname
  176   H176      -4.321913391    -1.516000769    10.013313575       H   1  noname
  177   O177       9.042328285    -1.783263041     3.818667282     O.3   1  noname
  178   H178       9.799750491    -1.313408900     4.267543471       H   1  noname
  179   O179       3.789289915    -1.231691588    -9.073625242     O.3   1  noname
  180   H180       4.231982194    -0.719365330    -9.806761980       H   1  noname
  181   O181      -4.735390867     6.709173293    -1.521288676     O.3   1  noname
  182   H182      -4.301253263     7.233216006    -2.291511514       H   1  noname
  183   O183      -1.174767225     7.423751847    -4.614559332     O.3   1  noname
  184   H184      -1.192074964     8.421645310    -4.657263598       H   1  noname
  185   O185       4.665255706     7.680133817    -2.342929950     O.3   1  noname
  186   H186       4.877775200     8.630890575    -2.128625807       H   1  noname
  187   O187       3.877095460     6.479831844     2.599880098     O.3   1  noname
  188   H188       4.110198987     6.970417606     1.733779965       H   1  noname
  189   C189      -2.161908870    -4.825241365     3.716082616     C.3   1  noname
  190   H190      -1.340781797    -5.484890182     4.043577561       H   1  noname
  191   H191      -2.877057189    -5.447637233     3.152275215       H   1  noname
  192   C192       3.614097931    -4.815976746     2.089169840     C.3   1  noname
  193   H193       3.955028521    -5.429654369     1.238371760       H   1  noname
  194   H194       3.090797971    -5.488263368     2.789777963       H   1  noname
  195   C195       2.094390383    -4.524958447    -3.788099055     C.3   1  noname
  196   H196       2.810813278    -5.194333379    -3.282759044       H   1  noname
  197   H197       1.269527268    -5.152909192    -4.164908745       H   1  noname
  198   C198      -3.717773231    -4.610587224    -2.149001873     C.3   1  noname
  199   H199      -3.196129806    -5.231678882    -2.896537253       H   1  noname
  200   H200      -4.069084474    -5.284970869    -1.349957303       H   1  noname
  201   C201       2.579703739    -3.824175761     1.550355900     C.3   1  noname
  202   H202       3.043205620    -3.193727849     0.782946338       H   1  noname
  203   H203       2.216088049    -3.194106672     2.370119630       H   1  noname
  204   H204       1.739323245    -4.374690414     1.112280287       H   1  noname
  205   C205       1.509144066    -3.594870047    -2.722086242     C.3   1  noname
  206   H206       2.316405233    -3.015282429    -2.259891910       H   1  noname
  207   H207       1.002357455    -4.191540656    -1.955035060       H   1  noname
  208   H208       0.789707468    -2.911963001    -3.188203123       H   1  noname
  209   C209      -2.677907176    -3.672772427    -1.530016416     C.3   1  noname
  210   H210      -1.888656421    -4.265743206    -1.053902036       H   1  noname
  211   H211      -3.160518467    -3.036898119    -0.779039582       H   1  noname
  212   H212      -2.240135940    -3.044320080    -2.313993451       H   1  noname
  213   C213      -1.568353348    -3.810548634     2.735240374     C.3   1  noname
  214   H214      -0.786565944    -3.230206686     3.238457700       H   1  noname
  215   H215      -2.357611788    -3.134815246     2.386425949       H   1  noname
  216   H216      -1.135972902    -4.340234026     1.878679498       H   1  noname


@<TRIPOS>BOND
    1      1      2    1
    2      2      5    ar
    3      5      6    ar
    4      3      6    ar
    5      3      7    ar
    6      4      7    ar
    7      2      4    ar
    8      3      8    1
    9      9     10    1
   10      7      9    1
   11     11     12    1
   12      6     11    1
   13     13     16    ar
   14     16     17    ar
   15     14     17    ar
   16     14     18    ar
   17     15     18    ar
   18     13     15    ar
   19     18     20    1
   20     16     19    1
   21      9     13    1
   22     21     24    ar
   23     24     25    ar
   24     22     25    ar
   25     22     26    ar
   26     23     26    ar
   27     21     23    ar
   28     25     28    1
   29     23     27    1
   30     11     21    1
   31     29     30    1
   32     26     29    1
   33     31     32    1
   34     17     31    1
   35     33     36    ar
   36     36     37    ar
   37     34     37    ar
   38     34     38    ar
   39     35     38    ar
   40     33     35    ar
   41     38     40    1
   42     36     39    1
   43     31     33    1
   44     29     37    1
   45     41    136    1
   46     41     42    1
   47     11     41    1
   48     43    133    1
   49     43     44    1
   50      9     43    1
   51     31    134    1
   52     29    135    1
   53     34     45    1
   54     22     46    1
   55     35     47    1
   56      4     48    1
   57     15     49    1
   58     14     50    1
   59     51     52    1
   60     48     51    1
   61     53     54    1
   62     50     53    1
   63     53     47    1
   64     51     49    1
   65      5     55    1
   66     56     57    1
   67     55     56    1
   68     24     58    1
   69     56     58    1
   70     59     60    1
   71     46     59    1
   72     45     59    1
   73     61     64    ar
   74     64     65    ar
   75     62     65    ar
   76     62     66    ar
   77     63     66    ar
   78     61     63    ar
   79     63     67    1
   80     64     68    1
   81     56     61    1
   82     69     72    ar
   83     72     73    ar
   84     70     73    ar
   85     70     74    ar
   86     71     74    ar
   87     69     71    ar
   88     71     75    1
   89     72     76    1
   90     59     69    1
   91     77     80    ar
   92     80     81    ar
   93     78     81    ar
   94     78     82    ar
   95     79     82    ar
   96     77     79    ar
   97     79     83    1
   98     80     84    1
   99     53     77    1
  100     85     88    ar
  101     88     89    ar
  102     86     89    ar
  103     86     90    ar
  104     87     90    ar
  105     85     87    ar
  106     87     91    1
  107     88     92    1
  108     51     85    1
  109     65     93    1
  110     74     94    1
  111     73     95    1
  112     90     96    1
  113     82     97    1
  114     81     98    1
  115     89     99    1
  116     66    100    1
  117    101    104    ar
  118    104    105    ar
  119    102    105    ar
  120    102    106    ar
  121    103    106    ar
  122    101    103    ar
  123    102    108    1
  124    104    107    1
  125     95    101    1
  126    109    112    ar
  127    112    113    ar
  128    110    113    ar
  129    110    114    ar
  130    111    114    ar
  131    109    111    ar
  132    110    116    1
  133    112    115    1
  134     98    109    1
  135    117    120    ar
  136    120    121    ar
  137    118    121    ar
  138    118    122    ar
  139    119    122    ar
  140    117    119    ar
  141    118    124    1
  142    119    123    1
  143    125    128    ar
  144    128    129    ar
  145    126    129    ar
  146    126    130    ar
  147    127    130    ar
  148    125    127    ar
  149    126    132    1
  150    128    131    1
  151    100    125    1
  152    106     97    1
  153     93    121    1
  154    117     96    1
  155    114     99    1
  156    130     94    1
  157    135    137    1
  158    135    138    1
  159    134    139    1
  160    134    140    1
  161    122    141    1
  162    113    142    1
  163    105    143    1
  164    129    144    1
  165    141    145    2
  166    142    146    2
  167    143    147    2
  168    144    148    2
  169    149    150    1
  170    149    151    1
  171    134    149    1
  172    152    153    1
  173    152    154    1
  174     41    152    1
  175    155    156    1
  176    155    157    1
  177    135    155    1
  178    158    159    1
  179    158    160    1
  180     43    158    1
  181    152    161    1
  182    155    162    1
  183    158    163    1
  184    149    164    1
  185    162    165    2
  186    164    166    2
  187    161    167    2
  188    163    168    2
  189     78    169    1
  190     70    170    1
  191     62    171    1
  192     86    172    1
  193    173    174    1
  194    143    173    1
  195    175    176    1
  196    142    175    1
  197    177    178    1
  198    141    177    1
  199    179    180    1
  200    144    179    1
  201    181    182    1
  202    164    181    1
  203    183    184    1
  204    162    183    1
  205    185    186    1
  206    161    185    1
  207    187    188    1
  208    163    187    1
  209    189    190    1
  210    189    191    1
  211    111    189    1
  212    192    193    1
  213    192    194    1
  214    120    192    1
  215    195    196    1
  216    195    197    1
  217    127    195    1
  218    198    199    1
  219    198    200    1
  220    103    198    1
  221    201    202    1
  222    201    203    1
  223    201    204    1
  224    192    201    1
  225    205    206    1
  226    205    207    1
  227    205    208    1
  228    195    205    1
  229    209    210    1
  230    209    211    1
  231    209    212    1
  232    198    209    1
  233    213    214    1
  234    213    215    1
  235    213    216    1
  236    189    213    1
